
---------- Begin Simulation Statistics ----------
final_tick                               181121955000                       # Number of ticks from beginning of simulation (restored from checkpoints and never reset)
host_inst_rate                                 413375                       # Simulator instruction rate (inst/s)
host_mem_usage                                 744476                       # Number of bytes of host memory used
host_op_rate                                   772318                       # Simulator op (including micro ops) rate (op/s)
host_seconds                                   483.75                       # Real time elapsed on the host
host_tick_rate                              374408942                       # Simulator tick rate (ticks/s)
sim_freq                                 1000000000000                       # Frequency of simulated ticks
sim_insts                                   199971760                       # Number of instructions simulated
sim_ops                                     373612323                       # Number of ops (including micro ops) simulated
sim_seconds                                  0.181122                       # Number of seconds simulated
sim_ticks                                181121955000                       # Number of ticks simulated
system.clk_domain.clock                          1000                       # Clock period in ticks
system.clk_domain.voltage_domain.voltage            1                       # Voltage in Volts
system.cpu0.Branches                         11270107                       # Number of branches fetched
system.cpu0.committedInsts                   49993256                       # Number of instructions committed
system.cpu0.committedOps                     93403674                       # Number of ops (including micro ops) committed
system.cpu0.dcache.ReadReq_accesses::.cpu0.data     10893622                       # number of ReadReq accesses(hits+misses)
system.cpu0.dcache.ReadReq_accesses::total     10893622                       # number of ReadReq accesses(hits+misses)
system.cpu0.dcache.ReadReq_avg_miss_latency::.cpu0.data 95921.780812                       # average ReadReq miss latency
system.cpu0.dcache.ReadReq_avg_miss_latency::total 95921.780812                       # average ReadReq miss latency
system.cpu0.dcache.ReadReq_avg_mshr_miss_latency::.cpu0.data 93921.780812                       # average ReadReq mshr miss latency
system.cpu0.dcache.ReadReq_avg_mshr_miss_latency::total 93921.780812                       # average ReadReq mshr miss latency
system.cpu0.dcache.ReadReq_hits::.cpu0.data     10879853                       # number of ReadReq hits
system.cpu0.dcache.ReadReq_hits::total       10879853                       # number of ReadReq hits
system.cpu0.dcache.ReadReq_miss_latency::.cpu0.data   1320747000                       # number of ReadReq miss cycles
system.cpu0.dcache.ReadReq_miss_latency::total   1320747000                       # number of ReadReq miss cycles
system.cpu0.dcache.ReadReq_miss_rate::.cpu0.data     0.001264                       # miss rate for ReadReq accesses
system.cpu0.dcache.ReadReq_miss_rate::total     0.001264                       # miss rate for ReadReq accesses
system.cpu0.dcache.ReadReq_misses::.cpu0.data        13769                       # number of ReadReq misses
system.cpu0.dcache.ReadReq_misses::total        13769                       # number of ReadReq misses
system.cpu0.dcache.ReadReq_mshr_miss_latency::.cpu0.data   1293209000                       # number of ReadReq MSHR miss cycles
system.cpu0.dcache.ReadReq_mshr_miss_latency::total   1293209000                       # number of ReadReq MSHR miss cycles
system.cpu0.dcache.ReadReq_mshr_miss_rate::.cpu0.data     0.001264                       # mshr miss rate for ReadReq accesses
system.cpu0.dcache.ReadReq_mshr_miss_rate::total     0.001264                       # mshr miss rate for ReadReq accesses
system.cpu0.dcache.ReadReq_mshr_misses::.cpu0.data        13769                       # number of ReadReq MSHR misses
system.cpu0.dcache.ReadReq_mshr_misses::total        13769                       # number of ReadReq MSHR misses
system.cpu0.dcache.WriteReq_accesses::.cpu0.data      7273348                       # number of WriteReq accesses(hits+misses)
system.cpu0.dcache.WriteReq_accesses::total      7273348                       # number of WriteReq accesses(hits+misses)
system.cpu0.dcache.WriteReq_avg_miss_latency::.cpu0.data 58100.339742                       # average WriteReq miss latency
system.cpu0.dcache.WriteReq_avg_miss_latency::total 58100.339742                       # average WriteReq miss latency
system.cpu0.dcache.WriteReq_avg_mshr_miss_latency::.cpu0.data 56100.339742                       # average WriteReq mshr miss latency
system.cpu0.dcache.WriteReq_avg_mshr_miss_latency::total 56100.339742                       # average WriteReq mshr miss latency
system.cpu0.dcache.WriteReq_hits::.cpu0.data      7221544                       # number of WriteReq hits
system.cpu0.dcache.WriteReq_hits::total       7221544                       # number of WriteReq hits
system.cpu0.dcache.WriteReq_miss_latency::.cpu0.data   3009830000                       # number of WriteReq miss cycles
system.cpu0.dcache.WriteReq_miss_latency::total   3009830000                       # number of WriteReq miss cycles
system.cpu0.dcache.WriteReq_miss_rate::.cpu0.data     0.007122                       # miss rate for WriteReq accesses
system.cpu0.dcache.WriteReq_miss_rate::total     0.007122                       # miss rate for WriteReq accesses
system.cpu0.dcache.WriteReq_misses::.cpu0.data        51804                       # number of WriteReq misses
system.cpu0.dcache.WriteReq_misses::total        51804                       # number of WriteReq misses
system.cpu0.dcache.WriteReq_mshr_miss_latency::.cpu0.data   2906222000                       # number of WriteReq MSHR miss cycles
system.cpu0.dcache.WriteReq_mshr_miss_latency::total   2906222000                       # number of WriteReq MSHR miss cycles
system.cpu0.dcache.WriteReq_mshr_miss_rate::.cpu0.data     0.007122                       # mshr miss rate for WriteReq accesses
system.cpu0.dcache.WriteReq_mshr_miss_rate::total     0.007122                       # mshr miss rate for WriteReq accesses
system.cpu0.dcache.WriteReq_mshr_misses::.cpu0.data        51804                       # number of WriteReq MSHR misses
system.cpu0.dcache.WriteReq_mshr_misses::total        51804                       # number of WriteReq MSHR misses
system.cpu0.dcache.avg_blocked_cycles::no_mshrs          nan                       # average number of cycles each access was blocked
system.cpu0.dcache.avg_blocked_cycles::no_targets          nan                       # average number of cycles each access was blocked
system.cpu0.dcache.blocked::no_mshrs                0                       # number of cycles access was blocked
system.cpu0.dcache.blocked::no_targets              0                       # number of cycles access was blocked
system.cpu0.dcache.blocked_cycles::no_mshrs            0                       # number of cycles access was blocked
system.cpu0.dcache.blocked_cycles::no_targets            0                       # number of cycles access was blocked
system.cpu0.dcache.demand_accesses::.cpu0.data     18166970                       # number of demand (read+write) accesses
system.cpu0.dcache.demand_accesses::total     18166970                       # number of demand (read+write) accesses
system.cpu0.dcache.demand_avg_miss_latency::.cpu0.data 66042.075244                       # average overall miss latency
system.cpu0.dcache.demand_avg_miss_latency::total 66042.075244                       # average overall miss latency
system.cpu0.dcache.demand_avg_mshr_miss_latency::.cpu0.data 64042.075244                       # average overall mshr miss latency
system.cpu0.dcache.demand_avg_mshr_miss_latency::total 64042.075244                       # average overall mshr miss latency
system.cpu0.dcache.demand_hits::.cpu0.data     18101397                       # number of demand (read+write) hits
system.cpu0.dcache.demand_hits::total        18101397                       # number of demand (read+write) hits
system.cpu0.dcache.demand_miss_latency::.cpu0.data   4330577000                       # number of demand (read+write) miss cycles
system.cpu0.dcache.demand_miss_latency::total   4330577000                       # number of demand (read+write) miss cycles
system.cpu0.dcache.demand_miss_rate::.cpu0.data     0.003609                       # miss rate for demand accesses
system.cpu0.dcache.demand_miss_rate::total     0.003609                       # miss rate for demand accesses
system.cpu0.dcache.demand_misses::.cpu0.data        65573                       # number of demand (read+write) misses
system.cpu0.dcache.demand_misses::total         65573                       # number of demand (read+write) misses
system.cpu0.dcache.demand_mshr_miss_latency::.cpu0.data   4199431000                       # number of demand (read+write) MSHR miss cycles
system.cpu0.dcache.demand_mshr_miss_latency::total   4199431000                       # number of demand (read+write) MSHR miss cycles
system.cpu0.dcache.demand_mshr_miss_rate::.cpu0.data     0.003609                       # mshr miss rate for demand accesses
system.cpu0.dcache.demand_mshr_miss_rate::total     0.003609                       # mshr miss rate for demand accesses
system.cpu0.dcache.demand_mshr_misses::.cpu0.data        65573                       # number of demand (read+write) MSHR misses
system.cpu0.dcache.demand_mshr_misses::total        65573                       # number of demand (read+write) MSHR misses
system.cpu0.dcache.overall_accesses::.cpu0.data     18166970                       # number of overall (read+write) accesses
system.cpu0.dcache.overall_accesses::total     18166970                       # number of overall (read+write) accesses
system.cpu0.dcache.overall_avg_miss_latency::.cpu0.data 66042.075244                       # average overall miss latency
system.cpu0.dcache.overall_avg_miss_latency::total 66042.075244                       # average overall miss latency
system.cpu0.dcache.overall_avg_mshr_miss_latency::.cpu0.data 64042.075244                       # average overall mshr miss latency
system.cpu0.dcache.overall_avg_mshr_miss_latency::total 64042.075244                       # average overall mshr miss latency
system.cpu0.dcache.overall_hits::.cpu0.data     18101397                       # number of overall hits
system.cpu0.dcache.overall_hits::total       18101397                       # number of overall hits
system.cpu0.dcache.overall_miss_latency::.cpu0.data   4330577000                       # number of overall miss cycles
system.cpu0.dcache.overall_miss_latency::total   4330577000                       # number of overall miss cycles
system.cpu0.dcache.overall_miss_rate::.cpu0.data     0.003609                       # miss rate for overall accesses
system.cpu0.dcache.overall_miss_rate::total     0.003609                       # miss rate for overall accesses
system.cpu0.dcache.overall_misses::.cpu0.data        65573                       # number of overall misses
system.cpu0.dcache.overall_misses::total        65573                       # number of overall misses
system.cpu0.dcache.overall_mshr_miss_latency::.cpu0.data   4199431000                       # number of overall MSHR miss cycles
system.cpu0.dcache.overall_mshr_miss_latency::total   4199431000                       # number of overall MSHR miss cycles
system.cpu0.dcache.overall_mshr_miss_rate::.cpu0.data     0.003609                       # mshr miss rate for overall accesses
system.cpu0.dcache.overall_mshr_miss_rate::total     0.003609                       # mshr miss rate for overall accesses
system.cpu0.dcache.overall_mshr_misses::.cpu0.data        65573                       # number of overall MSHR misses
system.cpu0.dcache.overall_mshr_misses::total        65573                       # number of overall MSHR misses
system.cpu0.dcache.pwrStateResidencyTicks::UNDEFINED 181121955000                       # Cumulative time (in ticks) in various power states
system.cpu0.dcache.replacements                 64549                       # number of replacements
system.cpu0.dcache.tags.age_task_id_blocks_1024::0            1                       # Occupied blocks per task id
system.cpu0.dcache.tags.age_task_id_blocks_1024::1           18                       # Occupied blocks per task id
system.cpu0.dcache.tags.age_task_id_blocks_1024::2          172                       # Occupied blocks per task id
system.cpu0.dcache.tags.age_task_id_blocks_1024::3          749                       # Occupied blocks per task id
system.cpu0.dcache.tags.age_task_id_blocks_1024::4           84                       # Occupied blocks per task id
system.cpu0.dcache.tags.avg_refs           277.049548                       # Average number of references to valid blocks.
system.cpu0.dcache.tags.data_accesses        36399513                       # Number of data accesses
system.cpu0.dcache.tags.occ_blocks::.cpu0.data  1020.706258                       # Average occupied blocks per requestor
system.cpu0.dcache.tags.occ_percent::.cpu0.data     0.996783                       # Average percentage of cache occupancy
system.cpu0.dcache.tags.occ_percent::total     0.996783                       # Average percentage of cache occupancy
system.cpu0.dcache.tags.occ_task_id_blocks::1024         1024                       # Occupied blocks per task id
system.cpu0.dcache.tags.occ_task_id_percent::1024            1                       # Percentage of cache occupancy per task id
system.cpu0.dcache.tags.pwrStateResidencyTicks::UNDEFINED 181121955000                       # Cumulative time (in ticks) in various power states
system.cpu0.dcache.tags.sampled_refs            65573                       # Sample count of references to valid blocks.
system.cpu0.dcache.tags.tag_accesses         36399513                       # Number of tag accesses
system.cpu0.dcache.tags.tagsinuse         1020.706258                       # Cycle average of tags in use
system.cpu0.dcache.tags.total_refs           18166970                       # Total number of references to valid blocks.
system.cpu0.dcache.tags.warmup_cycle           220000                       # Cycle when the warmup percentage was hit.
system.cpu0.dcache.writebacks::.writebacks        61440                       # number of writebacks
system.cpu0.dcache.writebacks::total            61440                       # number of writebacks
system.cpu0.dtb.rdAccesses                   10893622                       # TLB accesses on read requests
system.cpu0.dtb.rdMisses                         9190                       # TLB misses on read requests
system.cpu0.dtb.walker.pwrStateResidencyTicks::UNDEFINED 181121955000                       # Cumulative time (in ticks) in various power states
system.cpu0.dtb.wrAccesses                    7273348                       # TLB accesses on write requests
system.cpu0.dtb.wrMisses                          888                       # TLB misses on write requests
system.cpu0.icache.ReadReq_accesses::.cpu0.inst     67555121                       # number of ReadReq accesses(hits+misses)
system.cpu0.icache.ReadReq_accesses::total     67555121                       # number of ReadReq accesses(hits+misses)
system.cpu0.icache.ReadReq_avg_miss_latency::.cpu0.inst 26300.327459                       # average ReadReq miss latency
system.cpu0.icache.ReadReq_avg_miss_latency::total 26300.327459                       # average ReadReq miss latency
system.cpu0.icache.ReadReq_avg_mshr_miss_latency::.cpu0.inst 24300.327459                       # average ReadReq mshr miss latency
system.cpu0.icache.ReadReq_avg_mshr_miss_latency::total 24300.327459                       # average ReadReq mshr miss latency
system.cpu0.icache.ReadReq_hits::.cpu0.inst     67329444                       # number of ReadReq hits
system.cpu0.icache.ReadReq_hits::total       67329444                       # number of ReadReq hits
system.cpu0.icache.ReadReq_miss_latency::.cpu0.inst   5935379000                       # number of ReadReq miss cycles
system.cpu0.icache.ReadReq_miss_latency::total   5935379000                       # number of ReadReq miss cycles
system.cpu0.icache.ReadReq_miss_rate::.cpu0.inst     0.003341                       # miss rate for ReadReq accesses
system.cpu0.icache.ReadReq_miss_rate::total     0.003341                       # miss rate for ReadReq accesses
system.cpu0.icache.ReadReq_misses::.cpu0.inst       225677                       # number of ReadReq misses
system.cpu0.icache.ReadReq_misses::total       225677                       # number of ReadReq misses
system.cpu0.icache.ReadReq_mshr_miss_latency::.cpu0.inst   5484025000                       # number of ReadReq MSHR miss cycles
system.cpu0.icache.ReadReq_mshr_miss_latency::total   5484025000                       # number of ReadReq MSHR miss cycles
system.cpu0.icache.ReadReq_mshr_miss_rate::.cpu0.inst     0.003341                       # mshr miss rate for ReadReq accesses
system.cpu0.icache.ReadReq_mshr_miss_rate::total     0.003341                       # mshr miss rate for ReadReq accesses
system.cpu0.icache.ReadReq_mshr_misses::.cpu0.inst       225677                       # number of ReadReq MSHR misses
system.cpu0.icache.ReadReq_mshr_misses::total       225677                       # number of ReadReq MSHR misses
system.cpu0.icache.avg_blocked_cycles::no_mshrs          nan                       # average number of cycles each access was blocked
system.cpu0.icache.avg_blocked_cycles::no_targets          nan                       # average number of cycles each access was blocked
system.cpu0.icache.blocked::no_mshrs                0                       # number of cycles access was blocked
system.cpu0.icache.blocked::no_targets              0                       # number of cycles access was blocked
system.cpu0.icache.blocked_cycles::no_mshrs            0                       # number of cycles access was blocked
system.cpu0.icache.blocked_cycles::no_targets            0                       # number of cycles access was blocked
system.cpu0.icache.demand_accesses::.cpu0.inst     67555121                       # number of demand (read+write) accesses
system.cpu0.icache.demand_accesses::total     67555121                       # number of demand (read+write) accesses
system.cpu0.icache.demand_avg_miss_latency::.cpu0.inst 26300.327459                       # average overall miss latency
system.cpu0.icache.demand_avg_miss_latency::total 26300.327459                       # average overall miss latency
system.cpu0.icache.demand_avg_mshr_miss_latency::.cpu0.inst 24300.327459                       # average overall mshr miss latency
system.cpu0.icache.demand_avg_mshr_miss_latency::total 24300.327459                       # average overall mshr miss latency
system.cpu0.icache.demand_hits::.cpu0.inst     67329444                       # number of demand (read+write) hits
system.cpu0.icache.demand_hits::total        67329444                       # number of demand (read+write) hits
system.cpu0.icache.demand_miss_latency::.cpu0.inst   5935379000                       # number of demand (read+write) miss cycles
system.cpu0.icache.demand_miss_latency::total   5935379000                       # number of demand (read+write) miss cycles
system.cpu0.icache.demand_miss_rate::.cpu0.inst     0.003341                       # miss rate for demand accesses
system.cpu0.icache.demand_miss_rate::total     0.003341                       # miss rate for demand accesses
system.cpu0.icache.demand_misses::.cpu0.inst       225677                       # number of demand (read+write) misses
system.cpu0.icache.demand_misses::total        225677                       # number of demand (read+write) misses
system.cpu0.icache.demand_mshr_miss_latency::.cpu0.inst   5484025000                       # number of demand (read+write) MSHR miss cycles
system.cpu0.icache.demand_mshr_miss_latency::total   5484025000                       # number of demand (read+write) MSHR miss cycles
system.cpu0.icache.demand_mshr_miss_rate::.cpu0.inst     0.003341                       # mshr miss rate for demand accesses
system.cpu0.icache.demand_mshr_miss_rate::total     0.003341                       # mshr miss rate for demand accesses
system.cpu0.icache.demand_mshr_misses::.cpu0.inst       225677                       # number of demand (read+write) MSHR misses
system.cpu0.icache.demand_mshr_misses::total       225677                       # number of demand (read+write) MSHR misses
system.cpu0.icache.overall_accesses::.cpu0.inst     67555121                       # number of overall (read+write) accesses
system.cpu0.icache.overall_accesses::total     67555121                       # number of overall (read+write) accesses
system.cpu0.icache.overall_avg_miss_latency::.cpu0.inst 26300.327459                       # average overall miss latency
system.cpu0.icache.overall_avg_miss_latency::total 26300.327459                       # average overall miss latency
system.cpu0.icache.overall_avg_mshr_miss_latency::.cpu0.inst 24300.327459                       # average overall mshr miss latency
system.cpu0.icache.overall_avg_mshr_miss_latency::total 24300.327459                       # average overall mshr miss latency
system.cpu0.icache.overall_hits::.cpu0.inst     67329444                       # number of overall hits
system.cpu0.icache.overall_hits::total       67329444                       # number of overall hits
system.cpu0.icache.overall_miss_latency::.cpu0.inst   5935379000                       # number of overall miss cycles
system.cpu0.icache.overall_miss_latency::total   5935379000                       # number of overall miss cycles
system.cpu0.icache.overall_miss_rate::.cpu0.inst     0.003341                       # miss rate for overall accesses
system.cpu0.icache.overall_miss_rate::total     0.003341                       # miss rate for overall accesses
system.cpu0.icache.overall_misses::.cpu0.inst       225677                       # number of overall misses
system.cpu0.icache.overall_misses::total       225677                       # number of overall misses
system.cpu0.icache.overall_mshr_miss_latency::.cpu0.inst   5484025000                       # number of overall MSHR miss cycles
system.cpu0.icache.overall_mshr_miss_latency::total   5484025000                       # number of overall MSHR miss cycles
system.cpu0.icache.overall_mshr_miss_rate::.cpu0.inst     0.003341                       # mshr miss rate for overall accesses
system.cpu0.icache.overall_mshr_miss_rate::total     0.003341                       # mshr miss rate for overall accesses
system.cpu0.icache.overall_mshr_misses::.cpu0.inst       225677                       # number of overall MSHR misses
system.cpu0.icache.overall_mshr_misses::total       225677                       # number of overall MSHR misses
system.cpu0.icache.pwrStateResidencyTicks::UNDEFINED 181121955000                       # Cumulative time (in ticks) in various power states
system.cpu0.icache.replacements                225424                       # number of replacements
system.cpu0.icache.tags.age_task_id_blocks_1024::0            6                       # Occupied blocks per task id
system.cpu0.icache.tags.age_task_id_blocks_1024::3           10                       # Occupied blocks per task id
system.cpu0.icache.tags.age_task_id_blocks_1024::4          237                       # Occupied blocks per task id
system.cpu0.icache.tags.avg_refs           299.344289                       # Average number of references to valid blocks.
system.cpu0.icache.tags.data_accesses       135335919                       # Number of data accesses
system.cpu0.icache.tags.occ_blocks::.cpu0.inst   252.709626                       # Average occupied blocks per requestor
system.cpu0.icache.tags.occ_percent::.cpu0.inst     0.987147                       # Average percentage of cache occupancy
system.cpu0.icache.tags.occ_percent::total     0.987147                       # Average percentage of cache occupancy
system.cpu0.icache.tags.occ_task_id_blocks::1024          253                       # Occupied blocks per task id
system.cpu0.icache.tags.occ_task_id_percent::1024     0.988281                       # Percentage of cache occupancy per task id
system.cpu0.icache.tags.pwrStateResidencyTicks::UNDEFINED 181121955000                       # Cumulative time (in ticks) in various power states
system.cpu0.icache.tags.sampled_refs           225677                       # Sample count of references to valid blocks.
system.cpu0.icache.tags.tag_accesses        135335919                       # Number of tag accesses
system.cpu0.icache.tags.tagsinuse          252.709626                       # Cycle average of tags in use
system.cpu0.icache.tags.total_refs           67555121                       # Total number of references to valid blocks.
system.cpu0.icache.tags.warmup_cycle           107000                       # Cycle when the warmup percentage was hit.
system.cpu0.idle_fraction                           0                       # Percentage of idle cycles
system.cpu0.interrupts.clk_domain.clock         16000                       # Clock period in ticks
system.cpu0.interrupts.pwrStateResidencyTicks::UNDEFINED 181121955000                       # Cumulative time (in ticks) in various power states
system.cpu0.itb.rdAccesses                          0                       # TLB accesses on read requests
system.cpu0.itb.rdMisses                            0                       # TLB misses on read requests
system.cpu0.itb.walker.pwrStateResidencyTicks::UNDEFINED 181121955000                       # Cumulative time (in ticks) in various power states
system.cpu0.itb.wrAccesses                   67555121                       # TLB accesses on write requests
system.cpu0.itb.wrMisses                           49                       # TLB misses on write requests
system.cpu0.not_idle_fraction                       1                       # Percentage of non-idle cycles
system.cpu0.numCycles                       181121955                       # number of cpu cycles simulated
system.cpu0.numWorkItemsCompleted                   0                       # number of work items this cpu completed
system.cpu0.numWorkItemsStarted                     0                       # number of work items this cpu started
system.cpu0.num_busy_cycles                 181121955                       # Number of busy cycles
system.cpu0.num_cc_register_reads            57991667                       # number of times the CC registers were read
system.cpu0.num_cc_register_writes           29707153                       # number of times the CC registers were written
system.cpu0.num_conditional_control_insts      9156154                       # number of instructions that are conditional controls
system.cpu0.num_fp_alu_accesses               1222279                       # Number of float alu accesses
system.cpu0.num_fp_insts                      1222279                       # number of float instructions
system.cpu0.num_fp_register_reads             1373646                       # number of times the floating registers were read
system.cpu0.num_fp_register_writes             922686                       # number of times the floating registers were written
system.cpu0.num_func_calls                     950698                       # number of times a function call or return occured
system.cpu0.num_idle_cycles                         0                       # Number of idle cycles
system.cpu0.num_int_alu_accesses             92658611                       # Number of integer alu accesses
system.cpu0.num_int_insts                    92658611                       # number of integer instructions
system.cpu0.num_int_register_reads          179355484                       # number of times the integer registers were read
system.cpu0.num_int_register_writes          74039453                       # number of times the integer registers were written
system.cpu0.num_load_insts                   10887946                       # Number of load instructions
system.cpu0.num_mem_refs                     18161291                       # number of memory refs
system.cpu0.num_store_insts                   7273345                       # Number of store instructions
system.cpu0.num_vec_alu_accesses                    0                       # Number of vector alu accesses
system.cpu0.num_vec_insts                           0                       # number of vector instructions
system.cpu0.num_vec_register_reads                  0                       # number of times the vector registers were read
system.cpu0.num_vec_register_writes                 0                       # number of times the vector registers were written
system.cpu0.op_class::No_OpClass               166629      0.18%      0.18% # Class of executed instruction
system.cpu0.op_class::IntAlu                 74168299     79.41%     79.58% # Class of executed instruction
system.cpu0.op_class::IntMult                  223353      0.24%     79.82% # Class of executed instruction
system.cpu0.op_class::IntDiv                       21      0.00%     79.82% # Class of executed instruction
system.cpu0.op_class::FloatAdd                 117278      0.13%     79.95% # Class of executed instruction
system.cpu0.op_class::FloatCmp                      0      0.00%     79.95% # Class of executed instruction
system.cpu0.op_class::FloatCvt                      0      0.00%     79.95% # Class of executed instruction
system.cpu0.op_class::FloatMult                     0      0.00%     79.95% # Class of executed instruction
system.cpu0.op_class::FloatMultAcc                  0      0.00%     79.95% # Class of executed instruction
system.cpu0.op_class::FloatDiv                      0      0.00%     79.95% # Class of executed instruction
system.cpu0.op_class::FloatMisc                     0      0.00%     79.95% # Class of executed instruction
system.cpu0.op_class::FloatSqrt                     0      0.00%     79.95% # Class of executed instruction
system.cpu0.op_class::SimdAdd                     374      0.00%     79.95% # Class of executed instruction
system.cpu0.op_class::SimdAddAcc                    0      0.00%     79.95% # Class of executed instruction
system.cpu0.op_class::SimdAlu                     100      0.00%     79.95% # Class of executed instruction
system.cpu0.op_class::SimdCmp                       0      0.00%     79.95% # Class of executed instruction
system.cpu0.op_class::SimdCvt                  110388      0.12%     80.07% # Class of executed instruction
system.cpu0.op_class::SimdMisc                 455755      0.49%     80.56% # Class of executed instruction
system.cpu0.op_class::SimdMult                      0      0.00%     80.56% # Class of executed instruction
system.cpu0.op_class::SimdMultAcc                   0      0.00%     80.56% # Class of executed instruction
system.cpu0.op_class::SimdShift                   186      0.00%     80.56% # Class of executed instruction
system.cpu0.op_class::SimdShiftAcc                  0      0.00%     80.56% # Class of executed instruction
system.cpu0.op_class::SimdDiv                       0      0.00%     80.56% # Class of executed instruction
system.cpu0.op_class::SimdSqrt                      0      0.00%     80.56% # Class of executed instruction
system.cpu0.op_class::SimdFloatAdd                  0      0.00%     80.56% # Class of executed instruction
system.cpu0.op_class::SimdFloatAlu                  0      0.00%     80.56% # Class of executed instruction
system.cpu0.op_class::SimdFloatCmp                  0      0.00%     80.56% # Class of executed instruction
system.cpu0.op_class::SimdFloatCvt                  0      0.00%     80.56% # Class of executed instruction
system.cpu0.op_class::SimdFloatDiv                  0      0.00%     80.56% # Class of executed instruction
system.cpu0.op_class::SimdFloatMisc                 0      0.00%     80.56% # Class of executed instruction
system.cpu0.op_class::SimdFloatMult                 0      0.00%     80.56% # Class of executed instruction
system.cpu0.op_class::SimdFloatMultAcc              0      0.00%     80.56% # Class of executed instruction
system.cpu0.op_class::SimdFloatSqrt                 0      0.00%     80.56% # Class of executed instruction
system.cpu0.op_class::SimdReduceAdd                 0      0.00%     80.56% # Class of executed instruction
system.cpu0.op_class::SimdReduceAlu                 0      0.00%     80.56% # Class of executed instruction
system.cpu0.op_class::SimdReduceCmp                 0      0.00%     80.56% # Class of executed instruction
system.cpu0.op_class::SimdFloatReduceAdd            0      0.00%     80.56% # Class of executed instruction
system.cpu0.op_class::SimdFloatReduceCmp            0      0.00%     80.56% # Class of executed instruction
system.cpu0.op_class::SimdAes                       0      0.00%     80.56% # Class of executed instruction
system.cpu0.op_class::SimdAesMix                    0      0.00%     80.56% # Class of executed instruction
system.cpu0.op_class::SimdSha1Hash                  0      0.00%     80.56% # Class of executed instruction
system.cpu0.op_class::SimdSha1Hash2                 0      0.00%     80.56% # Class of executed instruction
system.cpu0.op_class::SimdSha256Hash                0      0.00%     80.56% # Class of executed instruction
system.cpu0.op_class::SimdSha256Hash2               0      0.00%     80.56% # Class of executed instruction
system.cpu0.op_class::SimdShaSigma2                 0      0.00%     80.56% # Class of executed instruction
system.cpu0.op_class::SimdShaSigma3                 0      0.00%     80.56% # Class of executed instruction
system.cpu0.op_class::SimdPredAlu                   0      0.00%     80.56% # Class of executed instruction
system.cpu0.op_class::MemRead                10588848     11.34%     91.89% # Class of executed instruction
system.cpu0.op_class::MemWrite                7084080      7.58%     99.48% # Class of executed instruction
system.cpu0.op_class::FloatMemRead             299098      0.32%     99.80% # Class of executed instruction
system.cpu0.op_class::FloatMemWrite            189265      0.20%    100.00% # Class of executed instruction
system.cpu0.op_class::IprAccess                     0      0.00%    100.00% # Class of executed instruction
system.cpu0.op_class::InstPrefetch                  0      0.00%    100.00% # Class of executed instruction
system.cpu0.op_class::total                  93403674                       # Class of executed instruction
system.cpu0.pwrStateResidencyTicks::ON   181121955000                       # Cumulative time (in ticks) in various power states
system.cpu0.workload.numSyscalls                   56                       # Number of system calls
system.cpu1.Branches                         11271693                       # Number of branches fetched
system.cpu1.committedInsts                   50000000                       # Number of instructions committed
system.cpu1.committedOps                     93416416                       # Number of ops (including micro ops) committed
system.cpu1.dcache.ReadReq_accesses::.cpu1.data     10895037                       # number of ReadReq accesses(hits+misses)
system.cpu1.dcache.ReadReq_accesses::total     10895037                       # number of ReadReq accesses(hits+misses)
system.cpu1.dcache.ReadReq_avg_miss_latency::.cpu1.data 95842.269689                       # average ReadReq miss latency
system.cpu1.dcache.ReadReq_avg_miss_latency::total 95842.269689                       # average ReadReq miss latency
system.cpu1.dcache.ReadReq_avg_mshr_miss_latency::.cpu1.data 93842.269689                       # average ReadReq mshr miss latency
system.cpu1.dcache.ReadReq_avg_mshr_miss_latency::total 93842.269689                       # average ReadReq mshr miss latency
system.cpu1.dcache.ReadReq_hits::.cpu1.data     10881273                       # number of ReadReq hits
system.cpu1.dcache.ReadReq_hits::total       10881273                       # number of ReadReq hits
system.cpu1.dcache.ReadReq_miss_latency::.cpu1.data   1319173000                       # number of ReadReq miss cycles
system.cpu1.dcache.ReadReq_miss_latency::total   1319173000                       # number of ReadReq miss cycles
system.cpu1.dcache.ReadReq_miss_rate::.cpu1.data     0.001263                       # miss rate for ReadReq accesses
system.cpu1.dcache.ReadReq_miss_rate::total     0.001263                       # miss rate for ReadReq accesses
system.cpu1.dcache.ReadReq_misses::.cpu1.data        13764                       # number of ReadReq misses
system.cpu1.dcache.ReadReq_misses::total        13764                       # number of ReadReq misses
system.cpu1.dcache.ReadReq_mshr_miss_latency::.cpu1.data   1291645000                       # number of ReadReq MSHR miss cycles
system.cpu1.dcache.ReadReq_mshr_miss_latency::total   1291645000                       # number of ReadReq MSHR miss cycles
system.cpu1.dcache.ReadReq_mshr_miss_rate::.cpu1.data     0.001263                       # mshr miss rate for ReadReq accesses
system.cpu1.dcache.ReadReq_mshr_miss_rate::total     0.001263                       # mshr miss rate for ReadReq accesses
system.cpu1.dcache.ReadReq_mshr_misses::.cpu1.data        13764                       # number of ReadReq MSHR misses
system.cpu1.dcache.ReadReq_mshr_misses::total        13764                       # number of ReadReq MSHR misses
system.cpu1.dcache.WriteReq_accesses::.cpu1.data      7274294                       # number of WriteReq accesses(hits+misses)
system.cpu1.dcache.WriteReq_accesses::total      7274294                       # number of WriteReq accesses(hits+misses)
system.cpu1.dcache.WriteReq_avg_miss_latency::.cpu1.data 57632.703480                       # average WriteReq miss latency
system.cpu1.dcache.WriteReq_avg_miss_latency::total 57632.703480                       # average WriteReq miss latency
system.cpu1.dcache.WriteReq_avg_mshr_miss_latency::.cpu1.data 55632.703480                       # average WriteReq mshr miss latency
system.cpu1.dcache.WriteReq_avg_mshr_miss_latency::total 55632.703480                       # average WriteReq mshr miss latency
system.cpu1.dcache.WriteReq_hits::.cpu1.data      7222483                       # number of WriteReq hits
system.cpu1.dcache.WriteReq_hits::total       7222483                       # number of WriteReq hits
system.cpu1.dcache.WriteReq_miss_latency::.cpu1.data   2986008000                       # number of WriteReq miss cycles
system.cpu1.dcache.WriteReq_miss_latency::total   2986008000                       # number of WriteReq miss cycles
system.cpu1.dcache.WriteReq_miss_rate::.cpu1.data     0.007122                       # miss rate for WriteReq accesses
system.cpu1.dcache.WriteReq_miss_rate::total     0.007122                       # miss rate for WriteReq accesses
system.cpu1.dcache.WriteReq_misses::.cpu1.data        51811                       # number of WriteReq misses
system.cpu1.dcache.WriteReq_misses::total        51811                       # number of WriteReq misses
system.cpu1.dcache.WriteReq_mshr_miss_latency::.cpu1.data   2882386000                       # number of WriteReq MSHR miss cycles
system.cpu1.dcache.WriteReq_mshr_miss_latency::total   2882386000                       # number of WriteReq MSHR miss cycles
system.cpu1.dcache.WriteReq_mshr_miss_rate::.cpu1.data     0.007122                       # mshr miss rate for WriteReq accesses
system.cpu1.dcache.WriteReq_mshr_miss_rate::total     0.007122                       # mshr miss rate for WriteReq accesses
system.cpu1.dcache.WriteReq_mshr_misses::.cpu1.data        51811                       # number of WriteReq MSHR misses
system.cpu1.dcache.WriteReq_mshr_misses::total        51811                       # number of WriteReq MSHR misses
system.cpu1.dcache.avg_blocked_cycles::no_mshrs          nan                       # average number of cycles each access was blocked
system.cpu1.dcache.avg_blocked_cycles::no_targets          nan                       # average number of cycles each access was blocked
system.cpu1.dcache.blocked::no_mshrs                0                       # number of cycles access was blocked
system.cpu1.dcache.blocked::no_targets              0                       # number of cycles access was blocked
system.cpu1.dcache.blocked_cycles::no_mshrs            0                       # number of cycles access was blocked
system.cpu1.dcache.blocked_cycles::no_targets            0                       # number of cycles access was blocked
system.cpu1.dcache.demand_accesses::.cpu1.data     18169331                       # number of demand (read+write) accesses
system.cpu1.dcache.demand_accesses::total     18169331                       # number of demand (read+write) accesses
system.cpu1.dcache.demand_avg_miss_latency::.cpu1.data 65652.779260                       # average overall miss latency
system.cpu1.dcache.demand_avg_miss_latency::total 65652.779260                       # average overall miss latency
system.cpu1.dcache.demand_avg_mshr_miss_latency::.cpu1.data 63652.779260                       # average overall mshr miss latency
system.cpu1.dcache.demand_avg_mshr_miss_latency::total 63652.779260                       # average overall mshr miss latency
system.cpu1.dcache.demand_hits::.cpu1.data     18103756                       # number of demand (read+write) hits
system.cpu1.dcache.demand_hits::total        18103756                       # number of demand (read+write) hits
system.cpu1.dcache.demand_miss_latency::.cpu1.data   4305181000                       # number of demand (read+write) miss cycles
system.cpu1.dcache.demand_miss_latency::total   4305181000                       # number of demand (read+write) miss cycles
system.cpu1.dcache.demand_miss_rate::.cpu1.data     0.003609                       # miss rate for demand accesses
system.cpu1.dcache.demand_miss_rate::total     0.003609                       # miss rate for demand accesses
system.cpu1.dcache.demand_misses::.cpu1.data        65575                       # number of demand (read+write) misses
system.cpu1.dcache.demand_misses::total         65575                       # number of demand (read+write) misses
system.cpu1.dcache.demand_mshr_miss_latency::.cpu1.data   4174031000                       # number of demand (read+write) MSHR miss cycles
system.cpu1.dcache.demand_mshr_miss_latency::total   4174031000                       # number of demand (read+write) MSHR miss cycles
system.cpu1.dcache.demand_mshr_miss_rate::.cpu1.data     0.003609                       # mshr miss rate for demand accesses
system.cpu1.dcache.demand_mshr_miss_rate::total     0.003609                       # mshr miss rate for demand accesses
system.cpu1.dcache.demand_mshr_misses::.cpu1.data        65575                       # number of demand (read+write) MSHR misses
system.cpu1.dcache.demand_mshr_misses::total        65575                       # number of demand (read+write) MSHR misses
system.cpu1.dcache.overall_accesses::.cpu1.data     18169331                       # number of overall (read+write) accesses
system.cpu1.dcache.overall_accesses::total     18169331                       # number of overall (read+write) accesses
system.cpu1.dcache.overall_avg_miss_latency::.cpu1.data 65652.779260                       # average overall miss latency
system.cpu1.dcache.overall_avg_miss_latency::total 65652.779260                       # average overall miss latency
system.cpu1.dcache.overall_avg_mshr_miss_latency::.cpu1.data 63652.779260                       # average overall mshr miss latency
system.cpu1.dcache.overall_avg_mshr_miss_latency::total 63652.779260                       # average overall mshr miss latency
system.cpu1.dcache.overall_hits::.cpu1.data     18103756                       # number of overall hits
system.cpu1.dcache.overall_hits::total       18103756                       # number of overall hits
system.cpu1.dcache.overall_miss_latency::.cpu1.data   4305181000                       # number of overall miss cycles
system.cpu1.dcache.overall_miss_latency::total   4305181000                       # number of overall miss cycles
system.cpu1.dcache.overall_miss_rate::.cpu1.data     0.003609                       # miss rate for overall accesses
system.cpu1.dcache.overall_miss_rate::total     0.003609                       # miss rate for overall accesses
system.cpu1.dcache.overall_misses::.cpu1.data        65575                       # number of overall misses
system.cpu1.dcache.overall_misses::total        65575                       # number of overall misses
system.cpu1.dcache.overall_mshr_miss_latency::.cpu1.data   4174031000                       # number of overall MSHR miss cycles
system.cpu1.dcache.overall_mshr_miss_latency::total   4174031000                       # number of overall MSHR miss cycles
system.cpu1.dcache.overall_mshr_miss_rate::.cpu1.data     0.003609                       # mshr miss rate for overall accesses
system.cpu1.dcache.overall_mshr_miss_rate::total     0.003609                       # mshr miss rate for overall accesses
system.cpu1.dcache.overall_mshr_misses::.cpu1.data        65575                       # number of overall MSHR misses
system.cpu1.dcache.overall_mshr_misses::total        65575                       # number of overall MSHR misses
system.cpu1.dcache.pwrStateResidencyTicks::UNDEFINED 181121955000                       # Cumulative time (in ticks) in various power states
system.cpu1.dcache.replacements                 64551                       # number of replacements
system.cpu1.dcache.tags.age_task_id_blocks_1024::0            1                       # Occupied blocks per task id
system.cpu1.dcache.tags.age_task_id_blocks_1024::1           18                       # Occupied blocks per task id
system.cpu1.dcache.tags.age_task_id_blocks_1024::2          165                       # Occupied blocks per task id
system.cpu1.dcache.tags.age_task_id_blocks_1024::3          773                       # Occupied blocks per task id
system.cpu1.dcache.tags.age_task_id_blocks_1024::4           67                       # Occupied blocks per task id
system.cpu1.dcache.tags.avg_refs           277.077103                       # Average number of references to valid blocks.
system.cpu1.dcache.tags.data_accesses        36404237                       # Number of data accesses
system.cpu1.dcache.tags.occ_blocks::.cpu1.data  1020.375414                       # Average occupied blocks per requestor
system.cpu1.dcache.tags.occ_percent::.cpu1.data     0.996460                       # Average percentage of cache occupancy
system.cpu1.dcache.tags.occ_percent::total     0.996460                       # Average percentage of cache occupancy
system.cpu1.dcache.tags.occ_task_id_blocks::1024         1024                       # Occupied blocks per task id
system.cpu1.dcache.tags.occ_task_id_percent::1024            1                       # Percentage of cache occupancy per task id
system.cpu1.dcache.tags.pwrStateResidencyTicks::UNDEFINED 181121955000                       # Cumulative time (in ticks) in various power states
system.cpu1.dcache.tags.sampled_refs            65575                       # Sample count of references to valid blocks.
system.cpu1.dcache.tags.tag_accesses         36404237                       # Number of tag accesses
system.cpu1.dcache.tags.tagsinuse         1020.375414                       # Cycle average of tags in use
system.cpu1.dcache.tags.total_refs           18169331                       # Total number of references to valid blocks.
system.cpu1.dcache.tags.warmup_cycle           283000                       # Cycle when the warmup percentage was hit.
system.cpu1.dcache.writebacks::.writebacks        61409                       # number of writebacks
system.cpu1.dcache.writebacks::total            61409                       # number of writebacks
system.cpu1.dtb.rdAccesses                   10895037                       # TLB accesses on read requests
system.cpu1.dtb.rdMisses                         9193                       # TLB misses on read requests
system.cpu1.dtb.walker.pwrStateResidencyTicks::UNDEFINED 181121955000                       # Cumulative time (in ticks) in various power states
system.cpu1.dtb.wrAccesses                    7274294                       # TLB accesses on write requests
system.cpu1.dtb.wrMisses                          888                       # TLB misses on write requests
system.cpu1.icache.ReadReq_accesses::.cpu1.inst     67564204                       # number of ReadReq accesses(hits+misses)
system.cpu1.icache.ReadReq_accesses::total     67564204                       # number of ReadReq accesses(hits+misses)
system.cpu1.icache.ReadReq_avg_miss_latency::.cpu1.inst 26308.554567                       # average ReadReq miss latency
system.cpu1.icache.ReadReq_avg_miss_latency::total 26308.554567                       # average ReadReq miss latency
system.cpu1.icache.ReadReq_avg_mshr_miss_latency::.cpu1.inst 24308.554567                       # average ReadReq mshr miss latency
system.cpu1.icache.ReadReq_avg_mshr_miss_latency::total 24308.554567                       # average ReadReq mshr miss latency
system.cpu1.icache.ReadReq_hits::.cpu1.inst     67338500                       # number of ReadReq hits
system.cpu1.icache.ReadReq_hits::total       67338500                       # number of ReadReq hits
system.cpu1.icache.ReadReq_miss_latency::.cpu1.inst   5937946000                       # number of ReadReq miss cycles
system.cpu1.icache.ReadReq_miss_latency::total   5937946000                       # number of ReadReq miss cycles
system.cpu1.icache.ReadReq_miss_rate::.cpu1.inst     0.003341                       # miss rate for ReadReq accesses
system.cpu1.icache.ReadReq_miss_rate::total     0.003341                       # miss rate for ReadReq accesses
system.cpu1.icache.ReadReq_misses::.cpu1.inst       225704                       # number of ReadReq misses
system.cpu1.icache.ReadReq_misses::total       225704                       # number of ReadReq misses
system.cpu1.icache.ReadReq_mshr_miss_latency::.cpu1.inst   5486538000                       # number of ReadReq MSHR miss cycles
system.cpu1.icache.ReadReq_mshr_miss_latency::total   5486538000                       # number of ReadReq MSHR miss cycles
system.cpu1.icache.ReadReq_mshr_miss_rate::.cpu1.inst     0.003341                       # mshr miss rate for ReadReq accesses
system.cpu1.icache.ReadReq_mshr_miss_rate::total     0.003341                       # mshr miss rate for ReadReq accesses
system.cpu1.icache.ReadReq_mshr_misses::.cpu1.inst       225704                       # number of ReadReq MSHR misses
system.cpu1.icache.ReadReq_mshr_misses::total       225704                       # number of ReadReq MSHR misses
system.cpu1.icache.avg_blocked_cycles::no_mshrs          nan                       # average number of cycles each access was blocked
system.cpu1.icache.avg_blocked_cycles::no_targets          nan                       # average number of cycles each access was blocked
system.cpu1.icache.blocked::no_mshrs                0                       # number of cycles access was blocked
system.cpu1.icache.blocked::no_targets              0                       # number of cycles access was blocked
system.cpu1.icache.blocked_cycles::no_mshrs            0                       # number of cycles access was blocked
system.cpu1.icache.blocked_cycles::no_targets            0                       # number of cycles access was blocked
system.cpu1.icache.demand_accesses::.cpu1.inst     67564204                       # number of demand (read+write) accesses
system.cpu1.icache.demand_accesses::total     67564204                       # number of demand (read+write) accesses
system.cpu1.icache.demand_avg_miss_latency::.cpu1.inst 26308.554567                       # average overall miss latency
system.cpu1.icache.demand_avg_miss_latency::total 26308.554567                       # average overall miss latency
system.cpu1.icache.demand_avg_mshr_miss_latency::.cpu1.inst 24308.554567                       # average overall mshr miss latency
system.cpu1.icache.demand_avg_mshr_miss_latency::total 24308.554567                       # average overall mshr miss latency
system.cpu1.icache.demand_hits::.cpu1.inst     67338500                       # number of demand (read+write) hits
system.cpu1.icache.demand_hits::total        67338500                       # number of demand (read+write) hits
system.cpu1.icache.demand_miss_latency::.cpu1.inst   5937946000                       # number of demand (read+write) miss cycles
system.cpu1.icache.demand_miss_latency::total   5937946000                       # number of demand (read+write) miss cycles
system.cpu1.icache.demand_miss_rate::.cpu1.inst     0.003341                       # miss rate for demand accesses
system.cpu1.icache.demand_miss_rate::total     0.003341                       # miss rate for demand accesses
system.cpu1.icache.demand_misses::.cpu1.inst       225704                       # number of demand (read+write) misses
system.cpu1.icache.demand_misses::total        225704                       # number of demand (read+write) misses
system.cpu1.icache.demand_mshr_miss_latency::.cpu1.inst   5486538000                       # number of demand (read+write) MSHR miss cycles
system.cpu1.icache.demand_mshr_miss_latency::total   5486538000                       # number of demand (read+write) MSHR miss cycles
system.cpu1.icache.demand_mshr_miss_rate::.cpu1.inst     0.003341                       # mshr miss rate for demand accesses
system.cpu1.icache.demand_mshr_miss_rate::total     0.003341                       # mshr miss rate for demand accesses
system.cpu1.icache.demand_mshr_misses::.cpu1.inst       225704                       # number of demand (read+write) MSHR misses
system.cpu1.icache.demand_mshr_misses::total       225704                       # number of demand (read+write) MSHR misses
system.cpu1.icache.overall_accesses::.cpu1.inst     67564204                       # number of overall (read+write) accesses
system.cpu1.icache.overall_accesses::total     67564204                       # number of overall (read+write) accesses
system.cpu1.icache.overall_avg_miss_latency::.cpu1.inst 26308.554567                       # average overall miss latency
system.cpu1.icache.overall_avg_miss_latency::total 26308.554567                       # average overall miss latency
system.cpu1.icache.overall_avg_mshr_miss_latency::.cpu1.inst 24308.554567                       # average overall mshr miss latency
system.cpu1.icache.overall_avg_mshr_miss_latency::total 24308.554567                       # average overall mshr miss latency
system.cpu1.icache.overall_hits::.cpu1.inst     67338500                       # number of overall hits
system.cpu1.icache.overall_hits::total       67338500                       # number of overall hits
system.cpu1.icache.overall_miss_latency::.cpu1.inst   5937946000                       # number of overall miss cycles
system.cpu1.icache.overall_miss_latency::total   5937946000                       # number of overall miss cycles
system.cpu1.icache.overall_miss_rate::.cpu1.inst     0.003341                       # miss rate for overall accesses
system.cpu1.icache.overall_miss_rate::total     0.003341                       # miss rate for overall accesses
system.cpu1.icache.overall_misses::.cpu1.inst       225704                       # number of overall misses
system.cpu1.icache.overall_misses::total       225704                       # number of overall misses
system.cpu1.icache.overall_mshr_miss_latency::.cpu1.inst   5486538000                       # number of overall MSHR miss cycles
system.cpu1.icache.overall_mshr_miss_latency::total   5486538000                       # number of overall MSHR miss cycles
system.cpu1.icache.overall_mshr_miss_rate::.cpu1.inst     0.003341                       # mshr miss rate for overall accesses
system.cpu1.icache.overall_mshr_miss_rate::total     0.003341                       # mshr miss rate for overall accesses
system.cpu1.icache.overall_mshr_misses::.cpu1.inst       225704                       # number of overall MSHR misses
system.cpu1.icache.overall_mshr_misses::total       225704                       # number of overall MSHR misses
system.cpu1.icache.pwrStateResidencyTicks::UNDEFINED 181121955000                       # Cumulative time (in ticks) in various power states
system.cpu1.icache.replacements                225451                       # number of replacements
system.cpu1.icache.tags.age_task_id_blocks_1024::0            6                       # Occupied blocks per task id
system.cpu1.icache.tags.age_task_id_blocks_1024::3           10                       # Occupied blocks per task id
system.cpu1.icache.tags.age_task_id_blocks_1024::4          237                       # Occupied blocks per task id
system.cpu1.icache.tags.avg_refs           299.348722                       # Average number of references to valid blocks.
system.cpu1.icache.tags.data_accesses       135354112                       # Number of data accesses
system.cpu1.icache.tags.occ_blocks::.cpu1.inst   252.708386                       # Average occupied blocks per requestor
system.cpu1.icache.tags.occ_percent::.cpu1.inst     0.987142                       # Average percentage of cache occupancy
system.cpu1.icache.tags.occ_percent::total     0.987142                       # Average percentage of cache occupancy
system.cpu1.icache.tags.occ_task_id_blocks::1024          253                       # Occupied blocks per task id
system.cpu1.icache.tags.occ_task_id_percent::1024     0.988281                       # Percentage of cache occupancy per task id
system.cpu1.icache.tags.pwrStateResidencyTicks::UNDEFINED 181121955000                       # Cumulative time (in ticks) in various power states
system.cpu1.icache.tags.sampled_refs           225704                       # Sample count of references to valid blocks.
system.cpu1.icache.tags.tag_accesses        135354112                       # Number of tag accesses
system.cpu1.icache.tags.tagsinuse          252.708386                       # Cycle average of tags in use
system.cpu1.icache.tags.total_refs           67564204                       # Total number of references to valid blocks.
system.cpu1.icache.tags.warmup_cycle           156000                       # Cycle when the warmup percentage was hit.
system.cpu1.idle_fraction                           0                       # Percentage of idle cycles
system.cpu1.interrupts.clk_domain.clock         16000                       # Clock period in ticks
system.cpu1.interrupts.pwrStateResidencyTicks::UNDEFINED 181121955000                       # Cumulative time (in ticks) in various power states
system.cpu1.itb.rdAccesses                          0                       # TLB accesses on read requests
system.cpu1.itb.rdMisses                            0                       # TLB misses on read requests
system.cpu1.itb.walker.pwrStateResidencyTicks::UNDEFINED 181121955000                       # Cumulative time (in ticks) in various power states
system.cpu1.itb.wrAccesses                   67564204                       # TLB accesses on write requests
system.cpu1.itb.wrMisses                           49                       # TLB misses on write requests
system.cpu1.not_idle_fraction                       1                       # Percentage of non-idle cycles
system.cpu1.numCycles                       181121955                       # number of cpu cycles simulated
system.cpu1.numWorkItemsCompleted                   0                       # number of work items this cpu completed
system.cpu1.numWorkItemsStarted                     0                       # number of work items this cpu started
system.cpu1.num_busy_cycles                 181121955                       # Number of busy cycles
system.cpu1.num_cc_register_reads            57999789                       # number of times the CC registers were read
system.cpu1.num_cc_register_writes           29711192                       # number of times the CC registers were written
system.cpu1.num_conditional_control_insts      9157455                       # number of instructions that are conditional controls
system.cpu1.num_fp_alu_accesses               1222432                       # Number of float alu accesses
system.cpu1.num_fp_insts                      1222432                       # number of float instructions
system.cpu1.num_fp_register_reads             1373816                       # number of times the floating registers were read
system.cpu1.num_fp_register_writes             922801                       # number of times the floating registers were written
system.cpu1.num_func_calls                     950822                       # number of times a function call or return occured
system.cpu1.num_idle_cycles                         0                       # Number of idle cycles
system.cpu1.num_int_alu_accesses             92671260                       # Number of integer alu accesses
system.cpu1.num_int_insts                    92671260                       # number of integer instructions
system.cpu1.num_int_register_reads          179379720                       # number of times the integer registers were read
system.cpu1.num_int_register_writes          74049566                       # number of times the integer registers were written
system.cpu1.num_load_insts                   10889359                       # Number of load instructions
system.cpu1.num_mem_refs                     18163650                       # number of memory refs
system.cpu1.num_store_insts                   7274291                       # Number of store instructions
system.cpu1.num_vec_alu_accesses                    0                       # Number of vector alu accesses
system.cpu1.num_vec_insts                           0                       # number of vector instructions
system.cpu1.num_vec_register_reads                  0                       # number of times the vector registers were read
system.cpu1.num_vec_register_writes                 0                       # number of times the vector registers were written
system.cpu1.op_class::No_OpClass               166650      0.18%      0.18% # Class of executed instruction
system.cpu1.op_class::IntAlu                 74178542     79.41%     79.58% # Class of executed instruction
system.cpu1.op_class::IntMult                  223387      0.24%     79.82% # Class of executed instruction
system.cpu1.op_class::IntDiv                       21      0.00%     79.82% # Class of executed instruction
system.cpu1.op_class::FloatAdd                 117293      0.13%     79.95% # Class of executed instruction
system.cpu1.op_class::FloatCmp                      0      0.00%     79.95% # Class of executed instruction
system.cpu1.op_class::FloatCvt                      0      0.00%     79.95% # Class of executed instruction
system.cpu1.op_class::FloatMult                     0      0.00%     79.95% # Class of executed instruction
system.cpu1.op_class::FloatMultAcc                  0      0.00%     79.95% # Class of executed instruction
system.cpu1.op_class::FloatDiv                      0      0.00%     79.95% # Class of executed instruction
system.cpu1.op_class::FloatMisc                     0      0.00%     79.95% # Class of executed instruction
system.cpu1.op_class::FloatSqrt                     0      0.00%     79.95% # Class of executed instruction
system.cpu1.op_class::SimdAdd                     374      0.00%     79.95% # Class of executed instruction
system.cpu1.op_class::SimdAddAcc                    0      0.00%     79.95% # Class of executed instruction
system.cpu1.op_class::SimdAlu                     100      0.00%     79.95% # Class of executed instruction
system.cpu1.op_class::SimdCmp                       0      0.00%     79.95% # Class of executed instruction
system.cpu1.op_class::SimdCvt                  110402      0.12%     80.07% # Class of executed instruction
system.cpu1.op_class::SimdMisc                 455811      0.49%     80.56% # Class of executed instruction
system.cpu1.op_class::SimdMult                      0      0.00%     80.56% # Class of executed instruction
system.cpu1.op_class::SimdMultAcc                   0      0.00%     80.56% # Class of executed instruction
system.cpu1.op_class::SimdShift                   186      0.00%     80.56% # Class of executed instruction
system.cpu1.op_class::SimdShiftAcc                  0      0.00%     80.56% # Class of executed instruction
system.cpu1.op_class::SimdDiv                       0      0.00%     80.56% # Class of executed instruction
system.cpu1.op_class::SimdSqrt                      0      0.00%     80.56% # Class of executed instruction
system.cpu1.op_class::SimdFloatAdd                  0      0.00%     80.56% # Class of executed instruction
system.cpu1.op_class::SimdFloatAlu                  0      0.00%     80.56% # Class of executed instruction
system.cpu1.op_class::SimdFloatCmp                  0      0.00%     80.56% # Class of executed instruction
system.cpu1.op_class::SimdFloatCvt                  0      0.00%     80.56% # Class of executed instruction
system.cpu1.op_class::SimdFloatDiv                  0      0.00%     80.56% # Class of executed instruction
system.cpu1.op_class::SimdFloatMisc                 0      0.00%     80.56% # Class of executed instruction
system.cpu1.op_class::SimdFloatMult                 0      0.00%     80.56% # Class of executed instruction
system.cpu1.op_class::SimdFloatMultAcc              0      0.00%     80.56% # Class of executed instruction
system.cpu1.op_class::SimdFloatSqrt                 0      0.00%     80.56% # Class of executed instruction
system.cpu1.op_class::SimdReduceAdd                 0      0.00%     80.56% # Class of executed instruction
system.cpu1.op_class::SimdReduceAlu                 0      0.00%     80.56% # Class of executed instruction
system.cpu1.op_class::SimdReduceCmp                 0      0.00%     80.56% # Class of executed instruction
system.cpu1.op_class::SimdFloatReduceAdd            0      0.00%     80.56% # Class of executed instruction
system.cpu1.op_class::SimdFloatReduceCmp            0      0.00%     80.56% # Class of executed instruction
system.cpu1.op_class::SimdAes                       0      0.00%     80.56% # Class of executed instruction
system.cpu1.op_class::SimdAesMix                    0      0.00%     80.56% # Class of executed instruction
system.cpu1.op_class::SimdSha1Hash                  0      0.00%     80.56% # Class of executed instruction
system.cpu1.op_class::SimdSha1Hash2                 0      0.00%     80.56% # Class of executed instruction
system.cpu1.op_class::SimdSha256Hash                0      0.00%     80.56% # Class of executed instruction
system.cpu1.op_class::SimdSha256Hash2               0      0.00%     80.56% # Class of executed instruction
system.cpu1.op_class::SimdShaSigma2                 0      0.00%     80.56% # Class of executed instruction
system.cpu1.op_class::SimdShaSigma3                 0      0.00%     80.56% # Class of executed instruction
system.cpu1.op_class::SimdPredAlu                   0      0.00%     80.56% # Class of executed instruction
system.cpu1.op_class::MemRead                10590223     11.34%     91.89% # Class of executed instruction
system.cpu1.op_class::MemWrite                7085002      7.58%     99.48% # Class of executed instruction
system.cpu1.op_class::FloatMemRead             299136      0.32%     99.80% # Class of executed instruction
system.cpu1.op_class::FloatMemWrite            189289      0.20%    100.00% # Class of executed instruction
system.cpu1.op_class::IprAccess                     0      0.00%    100.00% # Class of executed instruction
system.cpu1.op_class::InstPrefetch                  0      0.00%    100.00% # Class of executed instruction
system.cpu1.op_class::total                  93416416                       # Class of executed instruction
system.cpu1.pwrStateResidencyTicks::ON   181121955000                       # Cumulative time (in ticks) in various power states
system.cpu1.workload.numSyscalls                   56                       # Number of system calls
system.cpu2.Branches                         11267624                       # Number of branches fetched
system.cpu2.committedInsts                   49982587                       # Number of instructions committed
system.cpu2.committedOps                     93383532                       # Number of ops (including micro ops) committed
system.cpu2.dcache.ReadReq_accesses::.cpu2.data     10891360                       # number of ReadReq accesses(hits+misses)
system.cpu2.dcache.ReadReq_accesses::total     10891360                       # number of ReadReq accesses(hits+misses)
system.cpu2.dcache.ReadReq_avg_miss_latency::.cpu2.data 90966.725760                       # average ReadReq miss latency
system.cpu2.dcache.ReadReq_avg_miss_latency::total 90966.725760                       # average ReadReq miss latency
system.cpu2.dcache.ReadReq_avg_mshr_miss_latency::.cpu2.data 88966.725760                       # average ReadReq mshr miss latency
system.cpu2.dcache.ReadReq_avg_mshr_miss_latency::total 88966.725760                       # average ReadReq mshr miss latency
system.cpu2.dcache.ReadReq_hits::.cpu2.data     10876694                       # number of ReadReq hits
system.cpu2.dcache.ReadReq_hits::total       10876694                       # number of ReadReq hits
system.cpu2.dcache.ReadReq_miss_latency::.cpu2.data   1334118000                       # number of ReadReq miss cycles
system.cpu2.dcache.ReadReq_miss_latency::total   1334118000                       # number of ReadReq miss cycles
system.cpu2.dcache.ReadReq_miss_rate::.cpu2.data     0.001347                       # miss rate for ReadReq accesses
system.cpu2.dcache.ReadReq_miss_rate::total     0.001347                       # miss rate for ReadReq accesses
system.cpu2.dcache.ReadReq_misses::.cpu2.data        14666                       # number of ReadReq misses
system.cpu2.dcache.ReadReq_misses::total        14666                       # number of ReadReq misses
system.cpu2.dcache.ReadReq_mshr_miss_latency::.cpu2.data   1304786000                       # number of ReadReq MSHR miss cycles
system.cpu2.dcache.ReadReq_mshr_miss_latency::total   1304786000                       # number of ReadReq MSHR miss cycles
system.cpu2.dcache.ReadReq_mshr_miss_rate::.cpu2.data     0.001347                       # mshr miss rate for ReadReq accesses
system.cpu2.dcache.ReadReq_mshr_miss_rate::total     0.001347                       # mshr miss rate for ReadReq accesses
system.cpu2.dcache.ReadReq_mshr_misses::.cpu2.data        14666                       # number of ReadReq MSHR misses
system.cpu2.dcache.ReadReq_mshr_misses::total        14666                       # number of ReadReq MSHR misses
system.cpu2.dcache.WriteReq_accesses::.cpu2.data      7271820                       # number of WriteReq accesses(hits+misses)
system.cpu2.dcache.WriteReq_accesses::total      7271820                       # number of WriteReq accesses(hits+misses)
system.cpu2.dcache.WriteReq_avg_miss_latency::.cpu2.data 58443.140881                       # average WriteReq miss latency
system.cpu2.dcache.WriteReq_avg_miss_latency::total 58443.140881                       # average WriteReq miss latency
system.cpu2.dcache.WriteReq_avg_mshr_miss_latency::.cpu2.data 56443.140881                       # average WriteReq mshr miss latency
system.cpu2.dcache.WriteReq_avg_mshr_miss_latency::total 56443.140881                       # average WriteReq mshr miss latency
system.cpu2.dcache.WriteReq_hits::.cpu2.data      7219911                       # number of WriteReq hits
system.cpu2.dcache.WriteReq_hits::total       7219911                       # number of WriteReq hits
system.cpu2.dcache.WriteReq_miss_latency::.cpu2.data   3033725000                       # number of WriteReq miss cycles
system.cpu2.dcache.WriteReq_miss_latency::total   3033725000                       # number of WriteReq miss cycles
system.cpu2.dcache.WriteReq_miss_rate::.cpu2.data     0.007138                       # miss rate for WriteReq accesses
system.cpu2.dcache.WriteReq_miss_rate::total     0.007138                       # miss rate for WriteReq accesses
system.cpu2.dcache.WriteReq_misses::.cpu2.data        51909                       # number of WriteReq misses
system.cpu2.dcache.WriteReq_misses::total        51909                       # number of WriteReq misses
system.cpu2.dcache.WriteReq_mshr_miss_latency::.cpu2.data   2929907000                       # number of WriteReq MSHR miss cycles
system.cpu2.dcache.WriteReq_mshr_miss_latency::total   2929907000                       # number of WriteReq MSHR miss cycles
system.cpu2.dcache.WriteReq_mshr_miss_rate::.cpu2.data     0.007138                       # mshr miss rate for WriteReq accesses
system.cpu2.dcache.WriteReq_mshr_miss_rate::total     0.007138                       # mshr miss rate for WriteReq accesses
system.cpu2.dcache.WriteReq_mshr_misses::.cpu2.data        51909                       # number of WriteReq MSHR misses
system.cpu2.dcache.WriteReq_mshr_misses::total        51909                       # number of WriteReq MSHR misses
system.cpu2.dcache.avg_blocked_cycles::no_mshrs          nan                       # average number of cycles each access was blocked
system.cpu2.dcache.avg_blocked_cycles::no_targets          nan                       # average number of cycles each access was blocked
system.cpu2.dcache.blocked::no_mshrs                0                       # number of cycles access was blocked
system.cpu2.dcache.blocked::no_targets              0                       # number of cycles access was blocked
system.cpu2.dcache.blocked_cycles::no_mshrs            0                       # number of cycles access was blocked
system.cpu2.dcache.blocked_cycles::no_targets            0                       # number of cycles access was blocked
system.cpu2.dcache.demand_accesses::.cpu2.data     18163180                       # number of demand (read+write) accesses
system.cpu2.dcache.demand_accesses::total     18163180                       # number of demand (read+write) accesses
system.cpu2.dcache.demand_avg_miss_latency::.cpu2.data 65607.855802                       # average overall miss latency
system.cpu2.dcache.demand_avg_miss_latency::total 65607.855802                       # average overall miss latency
system.cpu2.dcache.demand_avg_mshr_miss_latency::.cpu2.data 63607.855802                       # average overall mshr miss latency
system.cpu2.dcache.demand_avg_mshr_miss_latency::total 63607.855802                       # average overall mshr miss latency
system.cpu2.dcache.demand_hits::.cpu2.data     18096605                       # number of demand (read+write) hits
system.cpu2.dcache.demand_hits::total        18096605                       # number of demand (read+write) hits
system.cpu2.dcache.demand_miss_latency::.cpu2.data   4367843000                       # number of demand (read+write) miss cycles
system.cpu2.dcache.demand_miss_latency::total   4367843000                       # number of demand (read+write) miss cycles
system.cpu2.dcache.demand_miss_rate::.cpu2.data     0.003665                       # miss rate for demand accesses
system.cpu2.dcache.demand_miss_rate::total     0.003665                       # miss rate for demand accesses
system.cpu2.dcache.demand_misses::.cpu2.data        66575                       # number of demand (read+write) misses
system.cpu2.dcache.demand_misses::total         66575                       # number of demand (read+write) misses
system.cpu2.dcache.demand_mshr_miss_latency::.cpu2.data   4234693000                       # number of demand (read+write) MSHR miss cycles
system.cpu2.dcache.demand_mshr_miss_latency::total   4234693000                       # number of demand (read+write) MSHR miss cycles
system.cpu2.dcache.demand_mshr_miss_rate::.cpu2.data     0.003665                       # mshr miss rate for demand accesses
system.cpu2.dcache.demand_mshr_miss_rate::total     0.003665                       # mshr miss rate for demand accesses
system.cpu2.dcache.demand_mshr_misses::.cpu2.data        66575                       # number of demand (read+write) MSHR misses
system.cpu2.dcache.demand_mshr_misses::total        66575                       # number of demand (read+write) MSHR misses
system.cpu2.dcache.overall_accesses::.cpu2.data     18163180                       # number of overall (read+write) accesses
system.cpu2.dcache.overall_accesses::total     18163180                       # number of overall (read+write) accesses
system.cpu2.dcache.overall_avg_miss_latency::.cpu2.data 65607.855802                       # average overall miss latency
system.cpu2.dcache.overall_avg_miss_latency::total 65607.855802                       # average overall miss latency
system.cpu2.dcache.overall_avg_mshr_miss_latency::.cpu2.data 63607.855802                       # average overall mshr miss latency
system.cpu2.dcache.overall_avg_mshr_miss_latency::total 63607.855802                       # average overall mshr miss latency
system.cpu2.dcache.overall_hits::.cpu2.data     18096605                       # number of overall hits
system.cpu2.dcache.overall_hits::total       18096605                       # number of overall hits
system.cpu2.dcache.overall_miss_latency::.cpu2.data   4367843000                       # number of overall miss cycles
system.cpu2.dcache.overall_miss_latency::total   4367843000                       # number of overall miss cycles
system.cpu2.dcache.overall_miss_rate::.cpu2.data     0.003665                       # miss rate for overall accesses
system.cpu2.dcache.overall_miss_rate::total     0.003665                       # miss rate for overall accesses
system.cpu2.dcache.overall_misses::.cpu2.data        66575                       # number of overall misses
system.cpu2.dcache.overall_misses::total        66575                       # number of overall misses
system.cpu2.dcache.overall_mshr_miss_latency::.cpu2.data   4234693000                       # number of overall MSHR miss cycles
system.cpu2.dcache.overall_mshr_miss_latency::total   4234693000                       # number of overall MSHR miss cycles
system.cpu2.dcache.overall_mshr_miss_rate::.cpu2.data     0.003665                       # mshr miss rate for overall accesses
system.cpu2.dcache.overall_mshr_miss_rate::total     0.003665                       # mshr miss rate for overall accesses
system.cpu2.dcache.overall_mshr_misses::.cpu2.data        66575                       # number of overall MSHR misses
system.cpu2.dcache.overall_mshr_misses::total        66575                       # number of overall MSHR misses
system.cpu2.dcache.pwrStateResidencyTicks::UNDEFINED 181121955000                       # Cumulative time (in ticks) in various power states
system.cpu2.dcache.replacements                 65551                       # number of replacements
system.cpu2.dcache.tags.age_task_id_blocks_1024::0            1                       # Occupied blocks per task id
system.cpu2.dcache.tags.age_task_id_blocks_1024::1           19                       # Occupied blocks per task id
[...]
system.mem_ctrl.wrPerTurnAround::22               547      4.37%     92.66% # Writes before turning the bus around for reads
system.mem_ctrl.wrPerTurnAround::23               395      3.16%     95.81% # Writes before turning the bus around for reads
system.mem_ctrl.wrPerTurnAround::24               258      2.06%     97.87% # Writes before turning the bus around for reads
system.mem_ctrl.wrPerTurnAround::25               145      1.16%     99.03% # Writes before turning the bus around for reads
system.mem_ctrl.wrPerTurnAround::26                75      0.60%     99.63% # Writes before turning the bus around for reads
system.mem_ctrl.wrPerTurnAround::27                20      0.16%     99.79% # Writes before turning the bus around for reads
system.mem_ctrl.wrPerTurnAround::28                16      0.13%     99.92% # Writes before turning the bus around for reads
system.mem_ctrl.wrPerTurnAround::29                 2      0.02%     99.94% # Writes before turning the bus around for reads
system.mem_ctrl.wrPerTurnAround::30                 2      0.02%     99.95% # Writes before turning the bus around for reads
system.mem_ctrl.wrPerTurnAround::31                 1      0.01%     99.96% # Writes before turning the bus around for reads
system.mem_ctrl.wrPerTurnAround::32                 1      0.01%     99.97% # Writes before turning the bus around for reads
system.mem_ctrl.wrPerTurnAround::33                 2      0.02%     99.98% # Writes before turning the bus around for reads
system.mem_ctrl.wrPerTurnAround::35                 1      0.01%     99.99% # Writes before turning the bus around for reads
system.mem_ctrl.wrPerTurnAround::36                 1      0.01%    100.00% # Writes before turning the bus around for reads
system.mem_ctrl.wrPerTurnAround::total          12514                       # Writes before turning the bus around for reads
system.mem_ctrl.wrQLenPdf::0                        1                       # What write queue length does an incoming req see
system.mem_ctrl.wrQLenPdf::1                        1                       # What write queue length does an incoming req see
system.mem_ctrl.wrQLenPdf::2                        1                       # What write queue length does an incoming req see
system.mem_ctrl.wrQLenPdf::3                        1                       # What write queue length does an incoming req see
system.mem_ctrl.wrQLenPdf::4                        1                       # What write queue length does an incoming req see
system.mem_ctrl.wrQLenPdf::5                        1                       # What write queue length does an incoming req see
system.mem_ctrl.wrQLenPdf::6                        1                       # What write queue length does an incoming req see
system.mem_ctrl.wrQLenPdf::7                        1                       # What write queue length does an incoming req see
system.mem_ctrl.wrQLenPdf::8                        1                       # What write queue length does an incoming req see
system.mem_ctrl.wrQLenPdf::9                        1                       # What write queue length does an incoming req see
system.mem_ctrl.wrQLenPdf::10                       1                       # What write queue length does an incoming req see
system.mem_ctrl.wrQLenPdf::11                       1                       # What write queue length does an incoming req see
system.mem_ctrl.wrQLenPdf::12                       1                       # What write queue length does an incoming req see
system.mem_ctrl.wrQLenPdf::13                       1                       # What write queue length does an incoming req see
system.mem_ctrl.wrQLenPdf::14                       1                       # What write queue length does an incoming req see
system.mem_ctrl.wrQLenPdf::15                   10507                       # What write queue length does an incoming req see
system.mem_ctrl.wrQLenPdf::16                   10740                       # What write queue length does an incoming req see
system.mem_ctrl.wrQLenPdf::17                   11710                       # What write queue length does an incoming req see
system.mem_ctrl.wrQLenPdf::18                   12131                       # What write queue length does an incoming req see
system.mem_ctrl.wrQLenPdf::19                   12409                       # What write queue length does an incoming req see
system.mem_ctrl.wrQLenPdf::20                   12603                       # What write queue length does an incoming req see
system.mem_ctrl.wrQLenPdf::21                   12720                       # What write queue length does an incoming req see
system.mem_ctrl.wrQLenPdf::22                   12783                       # What write queue length does an incoming req see
system.mem_ctrl.wrQLenPdf::23                   12766                       # What write queue length does an incoming req see
system.mem_ctrl.wrQLenPdf::24                   12786                       # What write queue length does an incoming req see
system.mem_ctrl.wrQLenPdf::25                   12988                       # What write queue length does an incoming req see
system.mem_ctrl.wrQLenPdf::26                   14003                       # What write queue length does an incoming req see
system.mem_ctrl.wrQLenPdf::27                   13914                       # What write queue length does an incoming req see
system.mem_ctrl.wrQLenPdf::28                   15432                       # What write queue length does an incoming req see
system.mem_ctrl.wrQLenPdf::29                   20079                       # What write queue length does an incoming req see
system.mem_ctrl.wrQLenPdf::30                   13010                       # What write queue length does an incoming req see
system.mem_ctrl.wrQLenPdf::31                   12565                       # What write queue length does an incoming req see
system.mem_ctrl.wrQLenPdf::32                   12554                       # What write queue length does an incoming req see
system.mem_ctrl.wrQLenPdf::33                     142                       # What write queue length does an incoming req see
system.mem_ctrl.wrQLenPdf::34                      75                       # What write queue length does an incoming req see
system.mem_ctrl.wrQLenPdf::35                      50                       # What write queue length does an incoming req see
system.mem_ctrl.wrQLenPdf::36                      38                       # What write queue length does an incoming req see
system.mem_ctrl.wrQLenPdf::37                      20                       # What write queue length does an incoming req see
system.mem_ctrl.wrQLenPdf::38                       6                       # What write queue length does an incoming req see
system.mem_ctrl.wrQLenPdf::39                       3                       # What write queue length does an incoming req see
system.mem_ctrl.wrQLenPdf::40                       2                       # What write queue length does an incoming req see
system.mem_ctrl.wrQLenPdf::41                       1                       # What write queue length does an incoming req see
system.mem_ctrl.wrQLenPdf::42                       0                       # What write queue length does an incoming req see
system.mem_ctrl.wrQLenPdf::43                       0                       # What write queue length does an incoming req see
system.mem_ctrl.wrQLenPdf::44                       0                       # What write queue length does an incoming req see
system.mem_ctrl.wrQLenPdf::45                       0                       # What write queue length does an incoming req see
system.mem_ctrl.wrQLenPdf::46                       0                       # What write queue length does an incoming req see
system.mem_ctrl.wrQLenPdf::47                       0                       # What write queue length does an incoming req see
system.mem_ctrl.wrQLenPdf::48                       0                       # What write queue length does an incoming req see
system.mem_ctrl.wrQLenPdf::49                       0                       # What write queue length does an incoming req see
system.mem_ctrl.wrQLenPdf::50                       0                       # What write queue length does an incoming req see
system.mem_ctrl.wrQLenPdf::51                       0                       # What write queue length does an incoming req see
system.mem_ctrl.wrQLenPdf::52                       0                       # What write queue length does an incoming req see
system.mem_ctrl.wrQLenPdf::53                       0                       # What write queue length does an incoming req see
system.mem_ctrl.wrQLenPdf::54                       0                       # What write queue length does an incoming req see
system.mem_ctrl.wrQLenPdf::55                       0                       # What write queue length does an incoming req see
system.mem_ctrl.wrQLenPdf::56                       0                       # What write queue length does an incoming req see
system.mem_ctrl.wrQLenPdf::57                       0                       # What write queue length does an incoming req see
system.mem_ctrl.wrQLenPdf::58                       0                       # What write queue length does an incoming req see
system.mem_ctrl.wrQLenPdf::59                       0                       # What write queue length does an incoming req see
system.mem_ctrl.wrQLenPdf::60                       0                       # What write queue length does an incoming req see
system.mem_ctrl.wrQLenPdf::61                       0                       # What write queue length does an incoming req see
system.mem_ctrl.wrQLenPdf::62                       0                       # What write queue length does an incoming req see
system.mem_ctrl.wrQLenPdf::63                       0                       # What write queue length does an incoming req see
system.mem_ctrl.writeBursts                    236052                       # Number of DRAM write bursts, including those merged in the write queue
system.mem_ctrl.writePktSize::0                     0                       # Write request sizes (log2)
system.mem_ctrl.writePktSize::1                     0                       # Write request sizes (log2)
system.mem_ctrl.writePktSize::2                     0                       # Write request sizes (log2)
system.mem_ctrl.writePktSize::3                     0                       # Write request sizes (log2)
system.mem_ctrl.writePktSize::4                     0                       # Write request sizes (log2)
system.mem_ctrl.writePktSize::5                     0                       # Write request sizes (log2)
system.mem_ctrl.writePktSize::6                236052                       # Write request sizes (log2)
system.mem_ctrl.writeReqs                      236052                       # Number of write requests accepted
system.mem_ctrl.writeRowHitRate                 56.86                       # Row buffer hit rate for writes
system.mem_ctrl.writeRowHits                   134215                       # Number of row buffer hits during writes
system.mem_ctrl_0.actBackEnergy           46514527380                       # Energy for active background per rank (pJ)
system.mem_ctrl_0.actEnergy                 683840640                       # Energy for activate commands per rank (pJ)
system.mem_ctrl_0.actPowerDownEnergy                0                       # Energy for active power-down per rank (pJ)
system.mem_ctrl_0.averagePower             517.541130                       # Core power per rank (mW)
system.mem_ctrl_0.memoryStateTime::IDLE   78510180376                       # Time in different power states
system.mem_ctrl_0.memoryStateTime::REF     6047860000                       # Time in different power states
system.mem_ctrl_0.memoryStateTime::SREF             0                       # Time in different power states
system.mem_ctrl_0.memoryStateTime::PRE_PDN            0                       # Time in different power states
system.mem_ctrl_0.memoryStateTime::ACT    96563914624                       # Time in different power states
system.mem_ctrl_0.memoryStateTime::ACT_PDN            0                       # Time in different power states
system.mem_ctrl_0.preBackEnergy           30380702400                       # Energy for precharge background per rank (pJ)
system.mem_ctrl_0.preEnergy                 363466125                       # Energy for precharge commands per rank (pJ)
system.mem_ctrl_0.prePowerDownEnergy                0                       # Energy for precharge power-down per rank (pJ)
system.mem_ctrl_0.readEnergy                881390160                       # Energy for read commands per rank (pJ)
system.mem_ctrl_0.refreshEnergy          14297141040.000002                       # Energy for refresh commands per rank (pJ)
system.mem_ctrl_0.selfRefreshEnergy                 0                       # Energy for self refresh per rank (pJ)
system.mem_ctrl_0.totalEnergy             93738061305                       # Total energy per rank (pJ)
system.mem_ctrl_0.totalIdleTime                     0                       # Total Idle time Per DRAM Rank
system.mem_ctrl_0.writeEnergy               616993560                       # Energy for write commands per rank (pJ)
system.mem_ctrl_1.actBackEnergy           48987337860                       # Energy for active background per rank (pJ)
system.mem_ctrl_1.actEnergy                 722139600                       # Energy for activate commands per rank (pJ)
system.mem_ctrl_1.actPowerDownEnergy                0                       # Energy for active power-down per rank (pJ)
system.mem_ctrl_1.averagePower             520.343607                       # Core power per rank (mW)
system.mem_ctrl_1.memoryStateTime::IDLE   73073362533                       # Time in different power states
system.mem_ctrl_1.memoryStateTime::REF     6047860000                       # Time in different power states
system.mem_ctrl_1.memoryStateTime::SREF             0                       # Time in different power states
system.mem_ctrl_1.memoryStateTime::PRE_PDN            0                       # Time in different power states
system.mem_ctrl_1.memoryStateTime::ACT   102000732467                       # Time in different power states
system.mem_ctrl_1.memoryStateTime::ACT_PDN            0                       # Time in different power states
system.mem_ctrl_1.preBackEnergy           28298335680                       # Energy for precharge background per rank (pJ)
system.mem_ctrl_1.preEnergy                 383818710                       # Energy for precharge commands per rank (pJ)
system.mem_ctrl_1.prePowerDownEnergy                0                       # Energy for precharge power-down per rank (pJ)
system.mem_ctrl_1.readEnergy                941758860                       # Energy for read commands per rank (pJ)
system.mem_ctrl_1.refreshEnergy          14297141040.000002                       # Energy for refresh commands per rank (pJ)
system.mem_ctrl_1.selfRefreshEnergy                 0                       # Energy for self refresh per rank (pJ)
system.mem_ctrl_1.totalEnergy             94245651330                       # Total energy per rank (pJ)
system.mem_ctrl_1.totalIdleTime                     0                       # Total Idle time Per DRAM Rank
system.mem_ctrl_1.writeEnergy               615119580                       # Energy for write commands per rank (pJ)
system.membus.pkt_count_system.l2cache.mem_side::system.mem_ctrl.port       756314                       # Packet count per connected master and slave (bytes)
system.membus.pkt_count_system.l2cache.mem_side::total       756314                       # Packet count per connected master and slave (bytes)
system.membus.pkt_count::total                 756314                       # Packet count per connected master and slave (bytes)
system.membus.pkt_size_system.l2cache.mem_side::system.mem_ctrl.port     31449728                       # Cumulative packet size per connected master and slave (bytes)
system.membus.pkt_size_system.l2cache.mem_side::total     31449728                       # Cumulative packet size per connected master and slave (bytes)
system.membus.pkt_size::total                31449728                       # Cumulative packet size per connected master and slave (bytes)
system.membus.pwrStateResidencyTicks::UNDEFINED 181121955000                       # Cumulative time (in ticks) in various power states
system.membus.reqLayer8.occupancy          1504002087                       # Layer occupancy (ticks)
system.membus.reqLayer8.utilization               0.8                       # Layer utilization (%)
system.membus.respLayer0.occupancy         1333636711                       # Layer occupancy (ticks)
system.membus.respLayer0.utilization              0.7                       # Layer utilization (%)
system.membus.snoopTraffic                          0                       # Total snoop traffic (bytes)
system.membus.snoop_fanout::samples            255350                       # Request fanout histogram
system.membus.snoop_fanout::mean                    0                       # Request fanout histogram
system.membus.snoop_fanout::stdev                   0                       # Request fanout histogram
system.membus.snoop_fanout::underflows              0      0.00%      0.00% # Request fanout histogram
system.membus.snoop_fanout::0                  255350    100.00%    100.00% # Request fanout histogram
system.membus.snoop_fanout::1                       0      0.00%    100.00% # Request fanout histogram
system.membus.snoop_fanout::overflows               0      0.00%    100.00% # Request fanout histogram
system.membus.snoop_fanout::min_value               0                       # Request fanout histogram
system.membus.snoop_fanout::max_value               0                       # Request fanout histogram
system.membus.snoop_fanout::total              255350                       # Request fanout histogram
system.membus.snoop_filter.hit_multi_requests            0                       # Number of requests hitting in the snoop filter with multiple (>1) holders of the requested data.
system.membus.snoop_filter.hit_multi_snoops            0                       # Number of snoops hitting in the snoop filter with multiple (>1) holders of the requested data.
system.membus.snoop_filter.hit_single_requests       245614                       # Number of requests hitting in the snoop filter with a single holder of the requested data.
system.membus.snoop_filter.hit_single_snoops            0                       # Number of snoops hitting in the snoop filter with a single holder of the requested data.
system.membus.snoop_filter.tot_requests        500964                       # Total number of requests made to the snoop filter.
system.membus.snoop_filter.tot_snoops               0                       # Total number of snoops made to the snoop filter.
system.membus.snoops                                0                       # Total snoops (count)
system.membus.trans_dist::ReadResp             184012                       # Transaction distribution
system.membus.trans_dist::WritebackDirty       236052                       # Transaction distribution
system.membus.trans_dist::CleanEvict             9562                       # Transaction distribution
system.membus.trans_dist::ReadExReq             71338                       # Transaction distribution
system.membus.trans_dist::ReadExResp            71338                       # Transaction distribution
system.membus.trans_dist::ReadSharedReq        184012                       # Transaction distribution

---------- End Simulation Statistics   ----------
