
---------- Begin Simulation Statistics ----------
final_tick                               181776619000                       # Number of ticks from beginning of simulation (restored from checkpoints and never reset)
host_inst_rate                                 364777                       # Simulator instruction rate (inst/s)
host_mem_usage                                 810888                       # Number of bytes of host memory used
host_op_rate                                   623853                       # Simulator op (including micro ops) rate (op/s)
host_seconds                                   425.59                       # Real time elapsed on the host
host_tick_rate                              427117139                       # Simulator tick rate (ticks/s)
sim_freq                                 1000000000000                       # Frequency of simulated ticks
sim_insts                                   155245302                       # Number of instructions simulated
sim_ops                                     265505446                       # Number of ops (including micro ops) simulated
sim_seconds                                  0.181777                       # Number of seconds simulated
sim_ticks                                181776619000                       # Number of ticks simulated
system.clk_domain.clock                          1000                       # Clock period in ticks
system.clk_domain.voltage_domain.voltage            1                       # Voltage in Volts
system.cpu0.Branches                         11271693                       # Number of branches fetched
system.cpu0.committedInsts                   50000000                       # Number of instructions committed
system.cpu0.committedOps                     93416416                       # Number of ops (including micro ops) committed
system.cpu0.dcache.ReadReq_accesses::.cpu0.data     10895037                       # number of ReadReq accesses(hits+misses)
system.cpu0.dcache.ReadReq_accesses::total     10895037                       # number of ReadReq accesses(hits+misses)
system.cpu0.dcache.ReadReq_avg_miss_latency::.cpu0.data 106914.304680                       # average ReadReq miss latency
system.cpu0.dcache.ReadReq_avg_miss_latency::total 106914.304680                       # average ReadReq miss latency
system.cpu0.dcache.ReadReq_avg_mshr_miss_latency::.cpu0.data 104914.304680                       # average ReadReq mshr miss latency
system.cpu0.dcache.ReadReq_avg_mshr_miss_latency::total 104914.304680                       # average ReadReq mshr miss latency
system.cpu0.dcache.ReadReq_hits::.cpu0.data     10879972                       # number of ReadReq hits
system.cpu0.dcache.ReadReq_hits::total       10879972                       # number of ReadReq hits
system.cpu0.dcache.ReadReq_miss_latency::.cpu0.data   1610664000                       # number of ReadReq miss cycles
system.cpu0.dcache.ReadReq_miss_latency::total   1610664000                       # number of ReadReq miss cycles
system.cpu0.dcache.ReadReq_miss_rate::.cpu0.data     0.001383                       # miss rate for ReadReq accesses
system.cpu0.dcache.ReadReq_miss_rate::total     0.001383                       # miss rate for ReadReq accesses
system.cpu0.dcache.ReadReq_misses::.cpu0.data        15065                       # number of ReadReq misses
system.cpu0.dcache.ReadReq_misses::total        15065                       # number of ReadReq misses
system.cpu0.dcache.ReadReq_mshr_miss_latency::.cpu0.data   1580534000                       # number of ReadReq MSHR miss cycles
system.cpu0.dcache.ReadReq_mshr_miss_latency::total   1580534000                       # number of ReadReq MSHR miss cycles
system.cpu0.dcache.ReadReq_mshr_miss_rate::.cpu0.data     0.001383                       # mshr miss rate for ReadReq accesses
system.cpu0.dcache.ReadReq_mshr_miss_rate::total     0.001383                       # mshr miss rate for ReadReq accesses
system.cpu0.dcache.ReadReq_mshr_misses::.cpu0.data        15065                       # number of ReadReq MSHR misses
system.cpu0.dcache.ReadReq_mshr_misses::total        15065                       # number of ReadReq MSHR misses
system.cpu0.dcache.WriteReq_accesses::.cpu0.data      7274294                       # number of WriteReq accesses(hits+misses)
system.cpu0.dcache.WriteReq_accesses::total      7274294                       # number of WriteReq accesses(hits+misses)
system.cpu0.dcache.WriteReq_avg_miss_latency::.cpu0.data 61963.684796                       # average WriteReq miss latency
system.cpu0.dcache.WriteReq_avg_miss_latency::total 61963.684796                       # average WriteReq miss latency
system.cpu0.dcache.WriteReq_avg_mshr_miss_latency::.cpu0.data 59963.684796                       # average WriteReq mshr miss latency
system.cpu0.dcache.WriteReq_avg_mshr_miss_latency::total 59963.684796                       # average WriteReq mshr miss latency
system.cpu0.dcache.WriteReq_hits::.cpu0.data      7222112                       # number of WriteReq hits
system.cpu0.dcache.WriteReq_hits::total       7222112                       # number of WriteReq hits
system.cpu0.dcache.WriteReq_miss_latency::.cpu0.data   3233389000                       # number of WriteReq miss cycles
system.cpu0.dcache.WriteReq_miss_latency::total   3233389000                       # number of WriteReq miss cycles
system.cpu0.dcache.WriteReq_miss_rate::.cpu0.data     0.007173                       # miss rate for WriteReq accesses
system.cpu0.dcache.WriteReq_miss_rate::total     0.007173                       # miss rate for WriteReq accesses
system.cpu0.dcache.WriteReq_misses::.cpu0.data        52182                       # number of WriteReq misses
system.cpu0.dcache.WriteReq_misses::total        52182                       # number of WriteReq misses
system.cpu0.dcache.WriteReq_mshr_miss_latency::.cpu0.data   3129025000                       # number of WriteReq MSHR miss cycles
system.cpu0.dcache.WriteReq_mshr_miss_latency::total   3129025000                       # number of WriteReq MSHR miss cycles
system.cpu0.dcache.WriteReq_mshr_miss_rate::.cpu0.data     0.007173                       # mshr miss rate for WriteReq accesses
system.cpu0.dcache.WriteReq_mshr_miss_rate::total     0.007173                       # mshr miss rate for WriteReq accesses
system.cpu0.dcache.WriteReq_mshr_misses::.cpu0.data        52182                       # number of WriteReq MSHR misses
system.cpu0.dcache.WriteReq_mshr_misses::total        52182                       # number of WriteReq MSHR misses
system.cpu0.dcache.avg_blocked_cycles::no_mshrs          nan                       # average number of cycles each access was blocked
system.cpu0.dcache.avg_blocked_cycles::no_targets          nan                       # average number of cycles each access was blocked
system.cpu0.dcache.blocked::no_mshrs                0                       # number of cycles access was blocked
system.cpu0.dcache.blocked::no_targets              0                       # number of cycles access was blocked
system.cpu0.dcache.blocked_cycles::no_mshrs            0                       # number of cycles access was blocked
system.cpu0.dcache.blocked_cycles::no_targets            0                       # number of cycles access was blocked
system.cpu0.dcache.demand_accesses::.cpu0.data     18169331                       # number of demand (read+write) accesses
system.cpu0.dcache.demand_accesses::total     18169331                       # number of demand (read+write) accesses
system.cpu0.dcache.demand_avg_miss_latency::.cpu0.data 72033.741282                       # average overall miss latency
system.cpu0.dcache.demand_avg_miss_latency::total 72033.741282                       # average overall miss latency
system.cpu0.dcache.demand_avg_mshr_miss_latency::.cpu0.data 70033.741282                       # average overall mshr miss latency
system.cpu0.dcache.demand_avg_mshr_miss_latency::total 70033.741282                       # average overall mshr miss latency
system.cpu0.dcache.demand_hits::.cpu0.data     18102084                       # number of demand (read+write) hits
system.cpu0.dcache.demand_hits::total        18102084                       # number of demand (read+write) hits
system.cpu0.dcache.demand_miss_latency::.cpu0.data   4844053000                       # number of demand (read+write) miss cycles
system.cpu0.dcache.demand_miss_latency::total   4844053000                       # number of demand (read+write) miss cycles
system.cpu0.dcache.demand_miss_rate::.cpu0.data     0.003701                       # miss rate for demand accesses
system.cpu0.dcache.demand_miss_rate::total     0.003701                       # miss rate for demand accesses
system.cpu0.dcache.demand_misses::.cpu0.data        67247                       # number of demand (read+write) misses
system.cpu0.dcache.demand_misses::total         67247                       # number of demand (read+write) misses
system.cpu0.dcache.demand_mshr_miss_latency::.cpu0.data   4709559000                       # number of demand (read+write) MSHR miss cycles
system.cpu0.dcache.demand_mshr_miss_latency::total   4709559000                       # number of demand (read+write) MSHR miss cycles
system.cpu0.dcache.demand_mshr_miss_rate::.cpu0.data     0.003701                       # mshr miss rate for demand accesses
system.cpu0.dcache.demand_mshr_miss_rate::total     0.003701                       # mshr miss rate for demand accesses
system.cpu0.dcache.demand_mshr_misses::.cpu0.data        67247                       # number of demand (read+write) MSHR misses
system.cpu0.dcache.demand_mshr_misses::total        67247                       # number of demand (read+write) MSHR misses
system.cpu0.dcache.overall_accesses::.cpu0.data     18169331                       # number of overall (read+write) accesses
system.cpu0.dcache.overall_accesses::total     18169331                       # number of overall (read+write) accesses
system.cpu0.dcache.overall_avg_miss_latency::.cpu0.data 72033.741282                       # average overall miss latency
system.cpu0.dcache.overall_avg_miss_latency::total 72033.741282                       # average overall miss latency
system.cpu0.dcache.overall_avg_mshr_miss_latency::.cpu0.data 70033.741282                       # average overall mshr miss latency
system.cpu0.dcache.overall_avg_mshr_miss_latency::total 70033.741282                       # average overall mshr miss latency
system.cpu0.dcache.overall_hits::.cpu0.data     18102084                       # number of overall hits
system.cpu0.dcache.overall_hits::total       18102084                       # number of overall hits
system.cpu0.dcache.overall_miss_latency::.cpu0.data   4844053000                       # number of overall miss cycles
system.cpu0.dcache.overall_miss_latency::total   4844053000                       # number of overall miss cycles
system.cpu0.dcache.overall_miss_rate::.cpu0.data     0.003701                       # miss rate for overall accesses
system.cpu0.dcache.overall_miss_rate::total     0.003701                       # miss rate for overall accesses
system.cpu0.dcache.overall_misses::.cpu0.data        67247                       # number of overall misses
system.cpu0.dcache.overall_misses::total        67247                       # number of overall misses
system.cpu0.dcache.overall_mshr_miss_latency::.cpu0.data   4709559000                       # number of overall MSHR miss cycles
system.cpu0.dcache.overall_mshr_miss_latency::total   4709559000                       # number of overall MSHR miss cycles
system.cpu0.dcache.overall_mshr_miss_rate::.cpu0.data     0.003701                       # mshr miss rate for overall accesses
system.cpu0.dcache.overall_mshr_miss_rate::total     0.003701                       # mshr miss rate for overall accesses
system.cpu0.dcache.overall_mshr_misses::.cpu0.data        67247                       # number of overall MSHR misses
system.cpu0.dcache.overall_mshr_misses::total        67247                       # number of overall MSHR misses
system.cpu0.dcache.pwrStateResidencyTicks::UNDEFINED 181776619000                       # Cumulative time (in ticks) in various power states
system.cpu0.dcache.replacements                 66223                       # number of replacements
system.cpu0.dcache.tags.age_task_id_blocks_1024::0            1                       # Occupied blocks per task id
system.cpu0.dcache.tags.age_task_id_blocks_1024::1           18                       # Occupied blocks per task id
system.cpu0.dcache.tags.age_task_id_blocks_1024::2          177                       # Occupied blocks per task id
system.cpu0.dcache.tags.age_task_id_blocks_1024::3          760                       # Occupied blocks per task id
system.cpu0.dcache.tags.age_task_id_blocks_1024::4           68                       # Occupied blocks per task id
system.cpu0.dcache.tags.avg_refs           270.187979                       # Average number of references to valid blocks.
system.cpu0.dcache.tags.data_accesses        36405909                       # Number of data accesses
system.cpu0.dcache.tags.occ_blocks::.cpu0.data  1020.022262                       # Average occupied blocks per requestor
system.cpu0.dcache.tags.occ_percent::.cpu0.data     0.996115                       # Average percentage of cache occupancy
system.cpu0.dcache.tags.occ_percent::total     0.996115                       # Average percentage of cache occupancy
system.cpu0.dcache.tags.occ_task_id_blocks::1024         1024                       # Occupied blocks per task id
system.cpu0.dcache.tags.occ_task_id_percent::1024            1                       # Percentage of cache occupancy per task id
system.cpu0.dcache.tags.pwrStateResidencyTicks::UNDEFINED 181776619000                       # Cumulative time (in ticks) in various power states
system.cpu0.dcache.tags.sampled_refs            67247                       # Sample count of references to valid blocks.
system.cpu0.dcache.tags.tag_accesses         36405909                       # Number of tag accesses
system.cpu0.dcache.tags.tagsinuse         1020.022262                       # Cycle average of tags in use
system.cpu0.dcache.tags.total_refs           18169331                       # Total number of references to valid blocks.
system.cpu0.dcache.tags.warmup_cycle           220000                       # Cycle when the warmup percentage was hit.
system.cpu0.dcache.writebacks::.writebacks        62734                       # number of writebacks
system.cpu0.dcache.writebacks::total            62734                       # number of writebacks
system.cpu0.dtb.rdAccesses                   10895037                       # TLB accesses on read requests
system.cpu0.dtb.rdMisses                         9265                       # TLB misses on read requests
system.cpu0.dtb.walker.pwrStateResidencyTicks::UNDEFINED 181776619000                       # Cumulative time (in ticks) in various power states
system.cpu0.dtb.wrAccesses                    7274294                       # TLB accesses on write requests
system.cpu0.dtb.wrMisses                          898                       # TLB misses on write requests
system.cpu0.icache.ReadReq_accesses::.cpu0.inst     67564204                       # number of ReadReq accesses(hits+misses)
system.cpu0.icache.ReadReq_accesses::total     67564204                       # number of ReadReq accesses(hits+misses)
system.cpu0.icache.ReadReq_avg_miss_latency::.cpu0.inst 26836.396342                       # average ReadReq miss latency
system.cpu0.icache.ReadReq_avg_miss_latency::total 26836.396342                       # average ReadReq miss latency
system.cpu0.icache.ReadReq_avg_mshr_miss_latency::.cpu0.inst 24836.396342                       # average ReadReq mshr miss latency
system.cpu0.icache.ReadReq_avg_mshr_miss_latency::total 24836.396342                       # average ReadReq mshr miss latency
system.cpu0.icache.ReadReq_hits::.cpu0.inst     67338500                       # number of ReadReq hits
system.cpu0.icache.ReadReq_hits::total       67338500                       # number of ReadReq hits
system.cpu0.icache.ReadReq_miss_latency::.cpu0.inst   6057082000                       # number of ReadReq miss cycles
system.cpu0.icache.ReadReq_miss_latency::total   6057082000                       # number of ReadReq miss cycles
system.cpu0.icache.ReadReq_miss_rate::.cpu0.inst     0.003341                       # miss rate for ReadReq accesses
system.cpu0.icache.ReadReq_miss_rate::total     0.003341                       # miss rate for ReadReq accesses
system.cpu0.icache.ReadReq_misses::.cpu0.inst       225704                       # number of ReadReq misses
system.cpu0.icache.ReadReq_misses::total       225704                       # number of ReadReq misses
system.cpu0.icache.ReadReq_mshr_miss_latency::.cpu0.inst   5605674000                       # number of ReadReq MSHR miss cycles
system.cpu0.icache.ReadReq_mshr_miss_latency::total   5605674000                       # number of ReadReq MSHR miss cycles
system.cpu0.icache.ReadReq_mshr_miss_rate::.cpu0.inst     0.003341                       # mshr miss rate for ReadReq accesses
system.cpu0.icache.ReadReq_mshr_miss_rate::total     0.003341                       # mshr miss rate for ReadReq accesses
system.cpu0.icache.ReadReq_mshr_misses::.cpu0.inst       225704                       # number of ReadReq MSHR misses
system.cpu0.icache.ReadReq_mshr_misses::total       225704                       # number of ReadReq MSHR misses
system.cpu0.icache.avg_blocked_cycles::no_mshrs          nan                       # average number of cycles each access was blocked
system.cpu0.icache.avg_blocked_cycles::no_targets          nan                       # average number of cycles each access was blocked
system.cpu0.icache.blocked::no_mshrs                0                       # number of cycles access was blocked
system.cpu0.icache.blocked::no_targets              0                       # number of cycles access was blocked
system.cpu0.icache.blocked_cycles::no_mshrs            0                       # number of cycles access was blocked
system.cpu0.icache.blocked_cycles::no_targets            0                       # number of cycles access was blocked
system.cpu0.icache.demand_accesses::.cpu0.inst     67564204                       # number of demand (read+write) accesses
system.cpu0.icache.demand_accesses::total     67564204                       # number of demand (read+write) accesses
system.cpu0.icache.demand_avg_miss_latency::.cpu0.inst 26836.396342                       # average overall miss latency
system.cpu0.icache.demand_avg_miss_latency::total 26836.396342                       # average overall miss latency
system.cpu0.icache.demand_avg_mshr_miss_latency::.cpu0.inst 24836.396342                       # average overall mshr miss latency
system.cpu0.icache.demand_avg_mshr_miss_latency::total 24836.396342                       # average overall mshr miss latency
system.cpu0.icache.demand_hits::.cpu0.inst     67338500                       # number of demand (read+write) hits
system.cpu0.icache.demand_hits::total        67338500                       # number of demand (read+write) hits
system.cpu0.icache.demand_miss_latency::.cpu0.inst   6057082000                       # number of demand (read+write) miss cycles
system.cpu0.icache.demand_miss_latency::total   6057082000                       # number of demand (read+write) miss cycles
system.cpu0.icache.demand_miss_rate::.cpu0.inst     0.003341                       # miss rate for demand accesses
system.cpu0.icache.demand_miss_rate::total     0.003341                       # miss rate for demand accesses
system.cpu0.icache.demand_misses::.cpu0.inst       225704                       # number of demand (read+write) misses
system.cpu0.icache.demand_misses::total        225704                       # number of demand (read+write) misses
system.cpu0.icache.demand_mshr_miss_latency::.cpu0.inst   5605674000                       # number of demand (read+write) MSHR miss cycles
system.cpu0.icache.demand_mshr_miss_latency::total   5605674000                       # number of demand (read+write) MSHR miss cycles
system.cpu0.icache.demand_mshr_miss_rate::.cpu0.inst     0.003341                       # mshr miss rate for demand accesses
system.cpu0.icache.demand_mshr_miss_rate::total     0.003341                       # mshr miss rate for demand accesses
system.cpu0.icache.demand_mshr_misses::.cpu0.inst       225704                       # number of demand (read+write) MSHR misses
system.cpu0.icache.demand_mshr_misses::total       225704                       # number of demand (read+write) MSHR misses
system.cpu0.icache.overall_accesses::.cpu0.inst     67564204                       # number of overall (read+write) accesses
system.cpu0.icache.overall_accesses::total     67564204                       # number of overall (read+write) accesses
system.cpu0.icache.overall_avg_miss_latency::.cpu0.inst 26836.396342                       # average overall miss latency
system.cpu0.icache.overall_avg_miss_latency::total 26836.396342                       # average overall miss latency
system.cpu0.icache.overall_avg_mshr_miss_latency::.cpu0.inst 24836.396342                       # average overall mshr miss latency
system.cpu0.icache.overall_avg_mshr_miss_latency::total 24836.396342                       # average overall mshr miss latency
system.cpu0.icache.overall_hits::.cpu0.inst     67338500                       # number of overall hits
system.cpu0.icache.overall_hits::total       67338500                       # number of overall hits
system.cpu0.icache.overall_miss_latency::.cpu0.inst   6057082000                       # number of overall miss cycles
system.cpu0.icache.overall_miss_latency::total   6057082000                       # number of overall miss cycles
system.cpu0.icache.overall_miss_rate::.cpu0.inst     0.003341                       # miss rate for overall accesses
system.cpu0.icache.overall_miss_rate::total     0.003341                       # miss rate for overall accesses
system.cpu0.icache.overall_misses::.cpu0.inst       225704                       # number of overall misses
system.cpu0.icache.overall_misses::total       225704                       # number of overall misses
system.cpu0.icache.overall_mshr_miss_latency::.cpu0.inst   5605674000                       # number of overall MSHR miss cycles
system.cpu0.icache.overall_mshr_miss_latency::total   5605674000                       # number of overall MSHR miss cycles
system.cpu0.icache.overall_mshr_miss_rate::.cpu0.inst     0.003341                       # mshr miss rate for overall accesses
system.cpu0.icache.overall_mshr_miss_rate::total     0.003341                       # mshr miss rate for overall accesses
system.cpu0.icache.overall_mshr_misses::.cpu0.inst       225704                       # number of overall MSHR misses
system.cpu0.icache.overall_mshr_misses::total       225704                       # number of overall MSHR misses
system.cpu0.icache.pwrStateResidencyTicks::UNDEFINED 181776619000                       # Cumulative time (in ticks) in various power states
system.cpu0.icache.replacements                225451                       # number of replacements
system.cpu0.icache.tags.age_task_id_blocks_1024::0            6                       # Occupied blocks per task id
system.cpu0.icache.tags.age_task_id_blocks_1024::3           10                       # Occupied blocks per task id
system.cpu0.icache.tags.age_task_id_blocks_1024::4          237                       # Occupied blocks per task id
system.cpu0.icache.tags.avg_refs           299.348722                       # Average number of references to valid blocks.
system.cpu0.icache.tags.data_accesses       135354112                       # Number of data accesses
system.cpu0.icache.tags.occ_blocks::.cpu0.inst   252.709082                       # Average occupied blocks per requestor
system.cpu0.icache.tags.occ_percent::.cpu0.inst     0.987145                       # Average percentage of cache occupancy
system.cpu0.icache.tags.occ_percent::total     0.987145                       # Average percentage of cache occupancy
system.cpu0.icache.tags.occ_task_id_blocks::1024          253                       # Occupied blocks per task id
system.cpu0.icache.tags.occ_task_id_percent::1024     0.988281                       # Percentage of cache occupancy per task id
system.cpu0.icache.tags.pwrStateResidencyTicks::UNDEFINED 181776619000                       # Cumulative time (in ticks) in various power states
system.cpu0.icache.tags.sampled_refs           225704                       # Sample count of references to valid blocks.
system.cpu0.icache.tags.tag_accesses        135354112                       # Number of tag accesses
system.cpu0.icache.tags.tagsinuse          252.709082                       # Cycle average of tags in use
system.cpu0.icache.tags.total_refs           67564204                       # Total number of references to valid blocks.
system.cpu0.icache.tags.warmup_cycle           107000                       # Cycle when the warmup percentage was hit.
system.cpu0.idle_fraction                           0                       # Percentage of idle cycles
system.cpu0.interrupts.clk_domain.clock         16000                       # Clock period in ticks
system.cpu0.interrupts.pwrStateResidencyTicks::UNDEFINED 181776619000                       # Cumulative time (in ticks) in various power states
system.cpu0.itb.rdAccesses                          0                       # TLB accesses on read requests
system.cpu0.itb.rdMisses                            0                       # TLB misses on read requests
system.cpu0.itb.walker.pwrStateResidencyTicks::UNDEFINED 181776619000                       # Cumulative time (in ticks) in various power states
system.cpu0.itb.wrAccesses                   67564204                       # TLB accesses on write requests
system.cpu0.itb.wrMisses                          139                       # TLB misses on write requests
system.cpu0.not_idle_fraction                       1                       # Percentage of non-idle cycles
system.cpu0.numCycles                       181776619                       # number of cpu cycles simulated
system.cpu0.numWorkItemsCompleted                   0                       # number of work items this cpu completed
system.cpu0.numWorkItemsStarted                     0                       # number of work items this cpu started
system.cpu0.num_busy_cycles                 181776619                       # Number of busy cycles
system.cpu0.num_cc_register_reads            57999789                       # number of times the CC registers were read
system.cpu0.num_cc_register_writes           29711192                       # number of times the CC registers were written
system.cpu0.num_conditional_control_insts      9157455                       # number of instructions that are conditional controls
system.cpu0.num_fp_alu_accesses               1222432                       # Number of float alu accesses
system.cpu0.num_fp_insts                      1222432                       # number of float instructions
system.cpu0.num_fp_register_reads             1373816                       # number of times the floating registers were read
system.cpu0.num_fp_register_writes             922801                       # number of times the floating registers were written
system.cpu0.num_func_calls                     950822                       # number of times a function call or return occured
system.cpu0.num_idle_cycles                         0                       # Number of idle cycles
system.cpu0.num_int_alu_accesses             92671260                       # Number of integer alu accesses
system.cpu0.num_int_insts                    92671260                       # number of integer instructions
system.cpu0.num_int_register_reads          179379720                       # number of times the integer registers were read
system.cpu0.num_int_register_writes          74049566                       # number of times the integer registers were written
system.cpu0.num_load_insts                   10889359                       # Number of load instructions
system.cpu0.num_mem_refs                     18163650                       # number of memory refs
system.cpu0.num_store_insts                   7274291                       # Number of store instructions
system.cpu0.num_vec_alu_accesses                    0                       # Number of vector alu accesses
system.cpu0.num_vec_insts                           0                       # number of vector instructions
system.cpu0.num_vec_register_reads                  0                       # number of times the vector registers were read
system.cpu0.num_vec_register_writes                 0                       # number of times the vector registers were written
system.cpu0.op_class::No_OpClass               166650      0.18%      0.18% # Class of executed instruction
system.cpu0.op_class::IntAlu                 74178542     79.41%     79.58% # Class of executed instruction
system.cpu0.op_class::IntMult                  223387      0.24%     79.82% # Class of executed instruction
system.cpu0.op_class::IntDiv                       21      0.00%     79.82% # Class of executed instruction
system.cpu0.op_class::FloatAdd                 117293      0.13%     79.95% # Class of executed instruction
system.cpu0.op_class::FloatCmp                      0      0.00%     79.95% # Class of executed instruction
system.cpu0.op_class::FloatCvt                      0      0.00%     79.95% # Class of executed instruction
system.cpu0.op_class::FloatMult                     0      0.00%     79.95% # Class of executed instruction
system.cpu0.op_class::FloatMultAcc                  0      0.00%     79.95% # Class of executed instruction
system.cpu0.op_class::FloatDiv                      0      0.00%     79.95% # Class of executed instruction
system.cpu0.op_class::FloatMisc                     0      0.00%     79.95% # Class of executed instruction
system.cpu0.op_class::FloatSqrt                     0      0.00%     79.95% # Class of executed instruction
system.cpu0.op_class::SimdAdd                     374      0.00%     79.95% # Class of executed instruction
system.cpu0.op_class::SimdAddAcc                    0      0.00%     79.95% # Class of executed instruction
system.cpu0.op_class::SimdAlu                     100      0.00%     79.95% # Class of executed instruction
system.cpu0.op_class::SimdCmp                       0      0.00%     79.95% # Class of executed instruction
system.cpu0.op_class::SimdCvt                  110402      0.12%     80.07% # Class of executed instruction
system.cpu0.op_class::SimdMisc                 455811      0.49%     80.56% # Class of executed instruction
system.cpu0.op_class::SimdMult                      0      0.00%     80.56% # Class of executed instruction
system.cpu0.op_class::SimdMultAcc                   0      0.00%     80.56% # Class of executed instruction
system.cpu0.op_class::SimdShift                   186      0.00%     80.56% # Class of executed instruction
system.cpu0.op_class::SimdShiftAcc                  0      0.00%     80.56% # Class of executed instruction
system.cpu0.op_class::SimdDiv                       0      0.00%     80.56% # Class of executed instruction
system.cpu0.op_class::SimdSqrt                      0      0.00%     80.56% # Class of executed instruction
system.cpu0.op_class::SimdFloatAdd                  0      0.00%     80.56% # Class of executed instruction
system.cpu0.op_class::SimdFloatAlu                  0      0.00%     80.56% # Class of executed instruction
system.cpu0.op_class::SimdFloatCmp                  0      0.00%     80.56% # Class of executed instruction
system.cpu0.op_class::SimdFloatCvt                  0      0.00%     80.56% # Class of executed instruction
system.cpu0.op_class::SimdFloatDiv                  0      0.00%     80.56% # Class of executed instruction
system.cpu0.op_class::SimdFloatMisc                 0      0.00%     80.56% # Class of executed instruction
system.cpu0.op_class::SimdFloatMult                 0      0.00%     80.56% # Class of executed instruction
system.cpu0.op_class::SimdFloatMultAcc              0      0.00%     80.56% # Class of executed instruction
system.cpu0.op_class::SimdFloatSqrt                 0      0.00%     80.56% # Class of executed instruction
system.cpu0.op_class::SimdReduceAdd                 0      0.00%     80.56% # Class of executed instruction
system.cpu0.op_class::SimdReduceAlu                 0      0.00%     80.56% # Class of executed instruction
system.cpu0.op_class::SimdReduceCmp                 0      0.00%     80.56% # Class of executed instruction
system.cpu0.op_class::SimdFloatReduceAdd            0      0.00%     80.56% # Class of executed instruction
system.cpu0.op_class::SimdFloatReduceCmp            0      0.00%     80.56% # Class of executed instruction
system.cpu0.op_class::SimdAes                       0      0.00%     80.56% # Class of executed instruction
system.cpu0.op_class::SimdAesMix                    0      0.00%     80.56% # Class of executed instruction
system.cpu0.op_class::SimdSha1Hash                  0      0.00%     80.56% # Class of executed instruction
system.cpu0.op_class::SimdSha1Hash2                 0      0.00%     80.56% # Class of executed instruction
system.cpu0.op_class::SimdSha256Hash                0      0.00%     80.56% # Class of executed instruction
system.cpu0.op_class::SimdSha256Hash2               0      0.00%     80.56% # Class of executed instruction
system.cpu0.op_class::SimdShaSigma2                 0      0.00%     80.56% # Class of executed instruction
system.cpu0.op_class::SimdShaSigma3                 0      0.00%     80.56% # Class of executed instruction
system.cpu0.op_class::SimdPredAlu                   0      0.00%     80.56% # Class of executed instruction
system.cpu0.op_class::MemRead                10590223     11.34%     91.89% # Class of executed instruction
system.cpu0.op_class::MemWrite                7085002      7.58%     99.48% # Class of executed instruction
system.cpu0.op_class::FloatMemRead             299136      0.32%     99.80% # Class of executed instruction
system.cpu0.op_class::FloatMemWrite            189289      0.20%    100.00% # Class of executed instruction
system.cpu0.op_class::IprAccess                     0      0.00%    100.00% # Class of executed instruction
system.cpu0.op_class::InstPrefetch                  0      0.00%    100.00% # Class of executed instruction
system.cpu0.op_class::total                  93416416                       # Class of executed instruction
system.cpu0.pwrStateResidencyTicks::ON   181776619000                       # Cumulative time (in ticks) in various power states
system.cpu0.workload.numSyscalls                   56                       # Number of system calls
system.cpu1.Branches                         11269943                       # Number of branches fetched
system.cpu1.committedInsts                   49992616                       # Number of instructions committed
system.cpu1.committedOps                     93402475                       # Number of ops (including micro ops) committed
system.cpu1.dcache.ReadReq_accesses::.cpu1.data     10893500                       # number of ReadReq accesses(hits+misses)
system.cpu1.dcache.ReadReq_accesses::total     10893500                       # number of ReadReq accesses(hits+misses)
system.cpu1.dcache.ReadReq_avg_miss_latency::.cpu1.data 108362.556219                       # average ReadReq miss latency
system.cpu1.dcache.ReadReq_avg_miss_latency::total 108362.556219                       # average ReadReq miss latency
system.cpu1.dcache.ReadReq_avg_mshr_miss_latency::.cpu1.data 106362.556219                       # average ReadReq mshr miss latency
system.cpu1.dcache.ReadReq_avg_mshr_miss_latency::total 106362.556219                       # average ReadReq mshr miss latency
system.cpu1.dcache.ReadReq_hits::.cpu1.data     10878603                       # number of ReadReq hits
system.cpu1.dcache.ReadReq_hits::total       10878603                       # number of ReadReq hits
system.cpu1.dcache.ReadReq_miss_latency::.cpu1.data   1614277000                       # number of ReadReq miss cycles
system.cpu1.dcache.ReadReq_miss_latency::total   1614277000                       # number of ReadReq miss cycles
system.cpu1.dcache.ReadReq_miss_rate::.cpu1.data     0.001368                       # miss rate for ReadReq accesses
system.cpu1.dcache.ReadReq_miss_rate::total     0.001368                       # miss rate for ReadReq accesses
system.cpu1.dcache.ReadReq_misses::.cpu1.data        14897                       # number of ReadReq misses
system.cpu1.dcache.ReadReq_misses::total        14897                       # number of ReadReq misses
system.cpu1.dcache.ReadReq_mshr_miss_latency::.cpu1.data   1584483000                       # number of ReadReq MSHR miss cycles
system.cpu1.dcache.ReadReq_mshr_miss_latency::total   1584483000                       # number of ReadReq MSHR miss cycles
system.cpu1.dcache.ReadReq_mshr_miss_rate::.cpu1.data     0.001368                       # mshr miss rate for ReadReq accesses
system.cpu1.dcache.ReadReq_mshr_miss_rate::total     0.001368                       # mshr miss rate for ReadReq accesses
system.cpu1.dcache.ReadReq_mshr_misses::.cpu1.data        14897                       # number of ReadReq MSHR misses
system.cpu1.dcache.ReadReq_mshr_misses::total        14897                       # number of ReadReq MSHR misses
system.cpu1.dcache.WriteReq_accesses::.cpu1.data      7273281                       # number of WriteReq accesses(hits+misses)
system.cpu1.dcache.WriteReq_accesses::total      7273281                       # number of WriteReq accesses(hits+misses)
system.cpu1.dcache.WriteReq_avg_miss_latency::.cpu1.data 62383.016195                       # average WriteReq miss latency
system.cpu1.dcache.WriteReq_avg_miss_latency::total 62383.016195                       # average WriteReq miss latency
system.cpu1.dcache.WriteReq_avg_mshr_miss_latency::.cpu1.data 60383.016195                       # average WriteReq mshr miss latency
system.cpu1.dcache.WriteReq_avg_mshr_miss_latency::total 60383.016195                       # average WriteReq mshr miss latency
system.cpu1.dcache.WriteReq_hits::.cpu1.data      7221043                       # number of WriteReq hits
system.cpu1.dcache.WriteReq_hits::total       7221043                       # number of WriteReq hits
system.cpu1.dcache.WriteReq_miss_latency::.cpu1.data   3258764000                       # number of WriteReq miss cycles
system.cpu1.dcache.WriteReq_miss_latency::total   3258764000                       # number of WriteReq miss cycles
system.cpu1.dcache.WriteReq_miss_rate::.cpu1.data     0.007182                       # miss rate for WriteReq accesses
system.cpu1.dcache.WriteReq_miss_rate::total     0.007182                       # miss rate for WriteReq accesses
system.cpu1.dcache.WriteReq_misses::.cpu1.data        52238                       # number of WriteReq misses
system.cpu1.dcache.WriteReq_misses::total        52238                       # number of WriteReq misses
system.cpu1.dcache.WriteReq_mshr_miss_latency::.cpu1.data   3154288000                       # number of WriteReq MSHR miss cycles
system.cpu1.dcache.WriteReq_mshr_miss_latency::total   3154288000                       # number of WriteReq MSHR miss cycles
system.cpu1.dcache.WriteReq_mshr_miss_rate::.cpu1.data     0.007182                       # mshr miss rate for WriteReq accesses
system.cpu1.dcache.WriteReq_mshr_miss_rate::total     0.007182                       # mshr miss rate for WriteReq accesses
system.cpu1.dcache.WriteReq_mshr_misses::.cpu1.data        52238                       # number of WriteReq MSHR misses
system.cpu1.dcache.WriteReq_mshr_misses::total        52238                       # number of WriteReq MSHR misses
system.cpu1.dcache.avg_blocked_cycles::no_mshrs          nan                       # average number of cycles each access was blocked
system.cpu1.dcache.avg_blocked_cycles::no_targets          nan                       # average number of cycles each access was blocked
system.cpu1.dcache.blocked::no_mshrs                0                       # number of cycles access was blocked
system.cpu1.dcache.blocked::no_targets              0                       # number of cycles access was blocked
system.cpu1.dcache.blocked_cycles::no_mshrs            0                       # number of cycles access was blocked
system.cpu1.dcache.blocked_cycles::no_targets            0                       # number of cycles access was blocked
system.cpu1.dcache.demand_accesses::.cpu1.data     18166781                       # number of demand (read+write) accesses
system.cpu1.dcache.demand_accesses::total     18166781                       # number of demand (read+write) accesses
system.cpu1.dcache.demand_avg_miss_latency::.cpu1.data 72585.700454                       # average overall miss latency
system.cpu1.dcache.demand_avg_miss_latency::total 72585.700454                       # average overall miss latency
system.cpu1.dcache.demand_avg_mshr_miss_latency::.cpu1.data 70585.700454                       # average overall mshr miss latency
system.cpu1.dcache.demand_avg_mshr_miss_latency::total 70585.700454                       # average overall mshr miss latency
system.cpu1.dcache.demand_hits::.cpu1.data     18099646                       # number of demand (read+write) hits
system.cpu1.dcache.demand_hits::total        18099646                       # number of demand (read+write) hits
system.cpu1.dcache.demand_miss_latency::.cpu1.data   4873041000                       # number of demand (read+write) miss cycles
system.cpu1.dcache.demand_miss_latency::total   4873041000                       # number of demand (read+write) miss cycles
system.cpu1.dcache.demand_miss_rate::.cpu1.data     0.003695                       # miss rate for demand accesses
system.cpu1.dcache.demand_miss_rate::total     0.003695                       # miss rate for demand accesses
system.cpu1.dcache.demand_misses::.cpu1.data        67135                       # number of demand (read+write) misses
system.cpu1.dcache.demand_misses::total         67135                       # number of demand (read+write) misses
system.cpu1.dcache.demand_mshr_miss_latency::.cpu1.data   4738771000                       # number of demand (read+write) MSHR miss cycles
system.cpu1.dcache.demand_mshr_miss_latency::total   4738771000                       # number of demand (read+write) MSHR miss cycles
system.cpu1.dcache.demand_mshr_miss_rate::.cpu1.data     0.003695                       # mshr miss rate for demand accesses
system.cpu1.dcache.demand_mshr_miss_rate::total     0.003695                       # mshr miss rate for demand accesses
system.cpu1.dcache.demand_mshr_misses::.cpu1.data        67135                       # number of demand (read+write) MSHR misses
system.cpu1.dcache.demand_mshr_misses::total        67135                       # number of demand (read+write) MSHR misses
system.cpu1.dcache.overall_accesses::.cpu1.data     18166781                       # number of overall (read+write) accesses
system.cpu1.dcache.overall_accesses::total     18166781                       # number of overall (read+write) accesses
system.cpu1.dcache.overall_avg_miss_latency::.cpu1.data 72585.700454                       # average overall miss latency
system.cpu1.dcache.overall_avg_miss_latency::total 72585.700454                       # average overall miss latency
system.cpu1.dcache.overall_avg_mshr_miss_latency::.cpu1.data 70585.700454                       # average overall mshr miss latency
system.cpu1.dcache.overall_avg_mshr_miss_latency::total 70585.700454                       # average overall mshr miss latency
system.cpu1.dcache.overall_hits::.cpu1.data     18099646                       # number of overall hits
system.cpu1.dcache.overall_hits::total       18099646                       # number of overall hits
system.cpu1.dcache.overall_miss_latency::.cpu1.data   4873041000                       # number of overall miss cycles
system.cpu1.dcache.overall_miss_latency::total   4873041000                       # number of overall miss cycles
system.cpu1.dcache.overall_miss_rate::.cpu1.data     0.003695                       # miss rate for overall accesses
system.cpu1.dcache.overall_miss_rate::total     0.003695                       # miss rate for overall accesses
system.cpu1.dcache.overall_misses::.cpu1.data        67135                       # number of overall misses
system.cpu1.dcache.overall_misses::total        67135                       # number of overall misses
system.cpu1.dcache.overall_mshr_miss_latency::.cpu1.data   4738771000                       # number of overall MSHR miss cycles
system.cpu1.dcache.overall_mshr_miss_latency::total   4738771000                       # number of overall MSHR miss cycles
system.cpu1.dcache.overall_mshr_miss_rate::.cpu1.data     0.003695                       # mshr miss rate for overall accesses
system.cpu1.dcache.overall_mshr_miss_rate::total     0.003695                       # mshr miss rate for overall accesses
system.cpu1.dcache.overall_mshr_misses::.cpu1.data        67135                       # number of overall MSHR misses
system.cpu1.dcache.overall_mshr_misses::total        67135                       # number of overall MSHR misses
system.cpu1.dcache.pwrStateResidencyTicks::UNDEFINED 181776619000                       # Cumulative time (in ticks) in various power states
system.cpu1.dcache.replacements                 66111                       # number of replacements
system.cpu1.dcache.tags.age_task_id_blocks_1024::0            2                       # Occupied blocks per task id
system.cpu1.dcache.tags.age_task_id_blocks_1024::1           14                       # Occupied blocks per task id
system.cpu1.dcache.tags.age_task_id_blocks_1024::2          178                       # Occupied blocks per task id
system.cpu1.dcache.tags.age_task_id_blocks_1024::3          759                       # Occupied blocks per task id
system.cpu1.dcache.tags.age_task_id_blocks_1024::4           71                       # Occupied blocks per task id
system.cpu1.dcache.tags.avg_refs           270.600745                       # Average number of references to valid blocks.
system.cpu1.dcache.tags.data_accesses        36400697                       # Number of data accesses
system.cpu1.dcache.tags.occ_blocks::.cpu1.data  1020.043452                       # Average occupied blocks per requestor
system.cpu1.dcache.tags.occ_percent::.cpu1.data     0.996136                       # Average percentage of cache occupancy
system.cpu1.dcache.tags.occ_percent::total     0.996136                       # Average percentage of cache occupancy
system.cpu1.dcache.tags.occ_task_id_blocks::1024         1024                       # Occupied blocks per task id
system.cpu1.dcache.tags.occ_task_id_percent::1024            1                       # Percentage of cache occupancy per task id
system.cpu1.dcache.tags.pwrStateResidencyTicks::UNDEFINED 181776619000                       # Cumulative time (in ticks) in various power states
system.cpu1.dcache.tags.sampled_refs            67135                       # Sample count of references to valid blocks.
system.cpu1.dcache.tags.tag_accesses         36400697                       # Number of tag accesses
system.cpu1.dcache.tags.tagsinuse         1020.043452                       # Cycle average of tags in use
system.cpu1.dcache.tags.total_refs           18166781                       # Total number of references to valid blocks.
system.cpu1.dcache.tags.warmup_cycle           283000                       # Cycle when the warmup percentage was hit.
system.cpu1.dcache.writebacks::.writebacks        62884                       # number of writebacks
system.cpu1.dcache.writebacks::total            62884                       # number of writebacks
system.cpu1.dtb.rdAccesses                   10893500                       # TLB accesses on read requests
system.cpu1.dtb.rdMisses                         9263                       # TLB misses on read requests
system.cpu1.dtb.walker.pwrStateResidencyTicks::UNDEFINED 181776619000                       # Cumulative time (in ticks) in various power states
system.cpu1.dtb.wrAccesses                    7273281                       # TLB accesses on write requests
system.cpu1.dtb.wrMisses                          899                       # TLB misses on write requests
system.cpu1.icache.ReadReq_accesses::.cpu1.inst     67554261                       # number of ReadReq accesses(hits+misses)
system.cpu1.icache.ReadReq_accesses::total     67554261                       # number of ReadReq accesses(hits+misses)
system.cpu1.icache.ReadReq_avg_miss_latency::.cpu1.inst 26821.077400                       # average ReadReq miss latency
system.cpu1.icache.ReadReq_avg_miss_latency::total 26821.077400                       # average ReadReq miss latency
system.cpu1.icache.ReadReq_avg_mshr_miss_latency::.cpu1.inst 24821.077400                       # average ReadReq mshr miss latency
system.cpu1.icache.ReadReq_avg_mshr_miss_latency::total 24821.077400                       # average ReadReq mshr miss latency
system.cpu1.icache.ReadReq_hits::.cpu1.inst     67328588                       # number of ReadReq hits
system.cpu1.icache.ReadReq_hits::total       67328588                       # number of ReadReq hits
system.cpu1.icache.ReadReq_miss_latency::.cpu1.inst   6052793000                       # number of ReadReq miss cycles
system.cpu1.icache.ReadReq_miss_latency::total   6052793000                       # number of ReadReq miss cycles
system.cpu1.icache.ReadReq_miss_rate::.cpu1.inst     0.003341                       # miss rate for ReadReq accesses
system.cpu1.icache.ReadReq_miss_rate::total     0.003341                       # miss rate for ReadReq accesses
system.cpu1.icache.ReadReq_misses::.cpu1.inst       225673                       # number of ReadReq misses
system.cpu1.icache.ReadReq_misses::total       225673                       # number of ReadReq misses
system.cpu1.icache.ReadReq_mshr_miss_latency::.cpu1.inst   5601447000                       # number of ReadReq MSHR miss cycles
system.cpu1.icache.ReadReq_mshr_miss_latency::total   5601447000                       # number of ReadReq MSHR miss cycles
system.cpu1.icache.ReadReq_mshr_miss_rate::.cpu1.inst     0.003341                       # mshr miss rate for ReadReq accesses
system.cpu1.icache.ReadReq_mshr_miss_rate::total     0.003341                       # mshr miss rate for ReadReq accesses
system.cpu1.icache.ReadReq_mshr_misses::.cpu1.inst       225673                       # number of ReadReq MSHR misses
system.cpu1.icache.ReadReq_mshr_misses::total       225673                       # number of ReadReq MSHR misses
system.cpu1.icache.avg_blocked_cycles::no_mshrs          nan                       # average number of cycles each access was blocked
system.cpu1.icache.avg_blocked_cycles::no_targets          nan                       # average number of cycles each access was blocked
system.cpu1.icache.blocked::no_mshrs                0                       # number of cycles access was blocked
system.cpu1.icache.blocked::no_targets              0                       # number of cycles access was blocked
system.cpu1.icache.blocked_cycles::no_mshrs            0                       # number of cycles access was blocked
system.cpu1.icache.blocked_cycles::no_targets            0                       # number of cycles access was blocked
system.cpu1.icache.demand_accesses::.cpu1.inst     67554261                       # number of demand (read+write) accesses
system.cpu1.icache.demand_accesses::total     67554261                       # number of demand (read+write) accesses
system.cpu1.icache.demand_avg_miss_latency::.cpu1.inst 26821.077400                       # average overall miss latency
system.cpu1.icache.demand_avg_miss_latency::total 26821.077400                       # average overall miss latency
system.cpu1.icache.demand_avg_mshr_miss_latency::.cpu1.inst 24821.077400                       # average overall mshr miss latency
system.cpu1.icache.demand_avg_mshr_miss_latency::total 24821.077400                       # average overall mshr miss latency
system.cpu1.icache.demand_hits::.cpu1.inst     67328588                       # number of demand (read+write) hits
system.cpu1.icache.demand_hits::total        67328588                       # number of demand (read+write) hits
system.cpu1.icache.demand_miss_latency::.cpu1.inst   6052793000                       # number of demand (read+write) miss cycles
system.cpu1.icache.demand_miss_latency::total   6052793000                       # number of demand (read+write) miss cycles
system.cpu1.icache.demand_miss_rate::.cpu1.inst     0.003341                       # miss rate for demand accesses
system.cpu1.icache.demand_miss_rate::total     0.003341                       # miss rate for demand accesses
system.cpu1.icache.demand_misses::.cpu1.inst       225673                       # number of demand (read+write) misses
system.cpu1.icache.demand_misses::total        225673                       # number of demand (read+write) misses
system.cpu1.icache.demand_mshr_miss_latency::.cpu1.inst   5601447000                       # number of demand (read+write) MSHR miss cycles
system.cpu1.icache.demand_mshr_miss_latency::total   5601447000                       # number of demand (read+write) MSHR miss cycles
system.cpu1.icache.demand_mshr_miss_rate::.cpu1.inst     0.003341                       # mshr miss rate for demand accesses
system.cpu1.icache.demand_mshr_miss_rate::total     0.003341                       # mshr miss rate for demand accesses
system.cpu1.icache.demand_mshr_misses::.cpu1.inst       225673                       # number of demand (read+write) MSHR misses
system.cpu1.icache.demand_mshr_misses::total       225673                       # number of demand (read+write) MSHR misses
system.cpu1.icache.overall_accesses::.cpu1.inst     67554261                       # number of overall (read+write) accesses
system.cpu1.icache.overall_accesses::total     67554261                       # number of overall (read+write) accesses
system.cpu1.icache.overall_avg_miss_latency::.cpu1.inst 26821.077400                       # average overall miss latency
system.cpu1.icache.overall_avg_miss_latency::total 26821.077400                       # average overall miss latency
system.cpu1.icache.overall_avg_mshr_miss_latency::.cpu1.inst 24821.077400                       # average overall mshr miss latency
system.cpu1.icache.overall_avg_mshr_miss_latency::total 24821.077400                       # average overall mshr miss latency
system.cpu1.icache.overall_hits::.cpu1.inst     67328588                       # number of overall hits
system.cpu1.icache.overall_hits::total       67328588                       # number of overall hits
system.cpu1.icache.overall_miss_latency::.cpu1.inst   6052793000                       # number of overall miss cycles
system.cpu1.icache.overall_miss_latency::total   6052793000                       # number of overall miss cycles
system.cpu1.icache.overall_miss_rate::.cpu1.inst     0.003341                       # miss rate for overall accesses
system.cpu1.icache.overall_miss_rate::total     0.003341                       # miss rate for overall accesses
system.cpu1.icache.overall_misses::.cpu1.inst       225673                       # number of overall misses
system.cpu1.icache.overall_misses::total       225673                       # number of overall misses
system.cpu1.icache.overall_mshr_miss_latency::.cpu1.inst   5601447000                       # number of overall MSHR miss cycles
system.cpu1.icache.overall_mshr_miss_latency::total   5601447000                       # number of overall MSHR miss cycles
system.cpu1.icache.overall_mshr_miss_rate::.cpu1.inst     0.003341                       # mshr miss rate for overall accesses
system.cpu1.icache.overall_mshr_miss_rate::total     0.003341                       # mshr miss rate for overall accesses
system.cpu1.icache.overall_mshr_misses::.cpu1.inst       225673                       # number of overall MSHR misses
system.cpu1.icache.overall_mshr_misses::total       225673                       # number of overall MSHR misses
system.cpu1.icache.pwrStateResidencyTicks::UNDEFINED 181776619000                       # Cumulative time (in ticks) in various power states
system.cpu1.icache.replacements                225420                       # number of replacements
system.cpu1.icache.tags.age_task_id_blocks_1024::0            6                       # Occupied blocks per task id
system.cpu1.icache.tags.age_task_id_blocks_1024::3           10                       # Occupied blocks per task id
system.cpu1.icache.tags.age_task_id_blocks_1024::4          237                       # Occupied blocks per task id
system.cpu1.icache.tags.avg_refs           299.345784                       # Average number of references to valid blocks.
system.cpu1.icache.tags.data_accesses       135334195                       # Number of data accesses
system.cpu1.icache.tags.occ_blocks::.cpu1.inst   252.708843                       # Average occupied blocks per requestor
system.cpu1.icache.tags.occ_percent::.cpu1.inst     0.987144                       # Average percentage of cache occupancy
system.cpu1.icache.tags.occ_percent::total     0.987144                       # Average percentage of cache occupancy
system.cpu1.icache.tags.occ_task_id_blocks::1024          253                       # Occupied blocks per task id
system.cpu1.icache.tags.occ_task_id_percent::1024     0.988281                       # Percentage of cache occupancy per task id
system.cpu1.icache.tags.pwrStateResidencyTicks::UNDEFINED 181776619000                       # Cumulative time (in ticks) in various power states
system.cpu1.icache.tags.sampled_refs           225673                       # Sample count of references to valid blocks.
system.cpu1.icache.tags.tag_accesses        135334195                       # Number of tag accesses
system.cpu1.icache.tags.tagsinuse          252.708843                       # Cycle average of tags in use
system.cpu1.icache.tags.total_refs           67554261                       # Total number of references to valid blocks.
system.cpu1.icache.tags.warmup_cycle           156000                       # Cycle when the warmup percentage was hit.
system.cpu1.idle_fraction                           0                       # Percentage of idle cycles
system.cpu1.interrupts.clk_domain.clock         16000                       # Clock period in ticks
system.cpu1.interrupts.pwrStateResidencyTicks::UNDEFINED 181776619000                       # Cumulative time (in ticks) in various power states
system.cpu1.itb.rdAccesses                          0                       # TLB accesses on read requests
system.cpu1.itb.rdMisses                            0                       # TLB misses on read requests
system.cpu1.itb.walker.pwrStateResidencyTicks::UNDEFINED 181776619000                       # Cumulative time (in ticks) in various power states
system.cpu1.itb.wrAccesses                   67554261                       # TLB accesses on write requests
system.cpu1.itb.wrMisses                          139                       # TLB misses on write requests
system.cpu1.not_idle_fraction                       1                       # Percentage of non-idle cycles
system.cpu1.numCycles                       181776619                       # number of cpu cycles simulated
system.cpu1.numWorkItemsCompleted                   0                       # number of work items this cpu completed
system.cpu1.numWorkItemsStarted                     0                       # number of work items this cpu started
system.cpu1.num_busy_cycles                 181776619                       # Number of busy cycles
system.cpu1.num_cc_register_reads            57990829                       # number of times the CC registers were read
system.cpu1.num_cc_register_writes           29706749                       # number of times the CC registers were written
system.cpu1.num_conditional_control_insts      9156014                       # number of instructions that are conditional controls
system.cpu1.num_fp_alu_accesses               1222274                       # Number of float alu accesses
system.cpu1.num_fp_insts                      1222274                       # number of float instructions
system.cpu1.num_fp_register_reads             1373644                       # number of times the floating registers were read
system.cpu1.num_fp_register_writes             922683                       # number of times the floating registers were written
system.cpu1.num_func_calls                     950692                       # number of times a function call or return occured
system.cpu1.num_idle_cycles                         0                       # Number of idle cycles
system.cpu1.num_int_alu_accesses             92657415                       # Number of integer alu accesses
system.cpu1.num_int_insts                    92657415                       # number of integer instructions
system.cpu1.num_int_register_reads          179353268                       # number of times the integer registers were read
system.cpu1.num_int_register_writes          74038486                       # number of times the integer registers were written
system.cpu1.num_load_insts                   10887824                       # Number of load instructions
system.cpu1.num_mem_refs                     18161102                       # number of memory refs
system.cpu1.num_store_insts                   7273278                       # Number of store instructions
system.cpu1.num_vec_alu_accesses                    0                       # Number of vector alu accesses
system.cpu1.num_vec_insts                           0                       # number of vector instructions
system.cpu1.num_vec_register_reads                  0                       # number of times the vector registers were read
system.cpu1.num_vec_register_writes                 0                       # number of times the vector registers were written
system.cpu1.op_class::No_OpClass               166627      0.18%      0.18% # Class of executed instruction
system.cpu1.op_class::IntAlu                 74167296     79.41%     79.58% # Class of executed instruction
system.cpu1.op_class::IntMult                  223349      0.24%     79.82% # Class of executed instruction
system.cpu1.op_class::IntDiv                       21      0.00%     79.82% # Class of executed instruction
system.cpu1.op_class::FloatAdd                 117277      0.13%     79.95% # Class of executed instruction
system.cpu1.op_class::FloatCmp                      0      0.00%     79.95% # Class of executed instruction
system.cpu1.op_class::FloatCvt                      0      0.00%     79.95% # Class of executed instruction
system.cpu1.op_class::FloatMult                     0      0.00%     79.95% # Class of executed instruction
system.cpu1.op_class::FloatMultAcc                  0      0.00%     79.95% # Class of executed instruction
system.cpu1.op_class::FloatDiv                      0      0.00%     79.95% # Class of executed instruction
system.cpu1.op_class::FloatMisc                     0      0.00%     79.95% # Class of executed instruction
system.cpu1.op_class::FloatSqrt                     0      0.00%     79.95% # Class of executed instruction
system.cpu1.op_class::SimdAdd                     374      0.00%     79.95% # Class of executed instruction
system.cpu1.op_class::SimdAddAcc                    0      0.00%     79.95% # Class of executed instruction
system.cpu1.op_class::SimdAlu                     100      0.00%     79.95% # Class of executed instruction
system.cpu1.op_class::SimdCmp                       0      0.00%     79.95% # Class of executed instruction
system.cpu1.op_class::SimdCvt                  110388      0.12%     80.07% # Class of executed instruction
system.cpu1.op_class::SimdMisc                 455755      0.49%     80.56% # Class of executed instruction
system.cpu1.op_class::SimdMult                      0      0.00%     80.56% # Class of executed instruction
system.cpu1.op_class::SimdMultAcc                   0      0.00%     80.56% # Class of executed instruction
system.cpu1.op_class::SimdShift                   186      0.00%     80.56% # Class of executed instruction
system.cpu1.op_class::SimdShiftAcc                  0      0.00%     80.56% # Class of executed instruction
system.cpu1.op_class::SimdDiv                       0      0.00%     80.56% # Class of executed instruction
system.cpu1.op_class::SimdSqrt                      0      0.00%     80.56% # Class of executed instruction
system.cpu1.op_class::SimdFloatAdd                  0      0.00%     80.56% # Class of executed instruction
system.cpu1.op_class::SimdFloatAlu                  0      0.00%     80.56% # Class of executed instruction
system.cpu1.op_class::SimdFloatCmp                  0      0.00%     80.56% # Class of executed instruction
system.cpu1.op_class::SimdFloatCvt                  0      0.00%     80.56% # Class of executed instruction
system.cpu1.op_class::SimdFloatDiv                  0      0.00%     80.56% # Class of executed instruction
system.cpu1.op_class::SimdFloatMisc                 0      0.00%     80.56% # Class of executed instruction
system.cpu1.op_class::SimdFloatMult                 0      0.00%     80.56% # Class of executed instruction
system.cpu1.op_class::SimdFloatMultAcc              0      0.00%     80.56% # Class of executed instruction
system.cpu1.op_class::SimdFloatSqrt                 0      0.00%     80.56% # Class of executed instruction
system.cpu1.op_class::SimdReduceAdd                 0      0.00%     80.56% # Class of executed instruction
system.cpu1.op_class::SimdReduceAlu                 0      0.00%     80.56% # Class of executed instruction
system.cpu1.op_class::SimdReduceCmp                 0      0.00%     80.56% # Class of executed instruction
system.cpu1.op_class::SimdFloatReduceAdd            0      0.00%     80.56% # Class of executed instruction
system.cpu1.op_class::SimdFloatReduceCmp            0      0.00%     80.56% # Class of executed instruction
system.cpu1.op_class::SimdAes                       0      0.00%     80.56% # Class of executed instruction
system.cpu1.op_class::SimdAesMix                    0      0.00%     80.56% # Class of executed instruction
system.cpu1.op_class::SimdSha1Hash                  0      0.00%     80.56% # Class of executed instruction
system.cpu1.op_class::SimdSha1Hash2                 0      0.00%     80.56% # Class of executed instruction
system.cpu1.op_class::SimdSha256Hash                0      0.00%     80.56% # Class of executed instruction
system.cpu1.op_class::SimdSha256Hash2               0      0.00%     80.56% # Class of executed instruction
system.cpu1.op_class::SimdShaSigma2                 0      0.00%     80.56% # Class of executed instruction
system.cpu1.op_class::SimdShaSigma3                 0      0.00%     80.56% # Class of executed instruction
system.cpu1.op_class::SimdPredAlu                   0      0.00%     80.56% # Class of executed instruction
system.cpu1.op_class::MemRead                10588728     11.34%     91.89% # Class of executed instruction
system.cpu1.op_class::MemWrite                7084015      7.58%     99.48% # Class of executed instruction
system.cpu1.op_class::FloatMemRead             299096      0.32%     99.80% # Class of executed instruction
system.cpu1.op_class::FloatMemWrite            189263      0.20%    100.00% # Class of executed instruction
system.cpu1.op_class::IprAccess                     0      0.00%    100.00% # Class of executed instruction
system.cpu1.op_class::InstPrefetch                  0      0.00%    100.00% # Class of executed instruction
system.cpu1.op_class::total                  93402475                       # Class of executed instruction
system.cpu1.pwrStateResidencyTicks::ON   181776619000                       # Cumulative time (in ticks) in various power states
system.cpu1.workload.numSyscalls                   56                       # Number of system calls
system.cpu2.Branches                          2110997                       # Number of branches fetched
system.cpu2.committedInsts                   27618329                       # Number of instructions committed
system.cpu2.committedOps                     39332060                       # Number of ops (including micro ops) committed
system.cpu2.dcache.ReadReq_accesses::.cpu2.data      5914454                       # number of ReadReq accesses(hits+misses)
system.cpu2.dcache.ReadReq_accesses::total      5914454                       # number of ReadReq accesses(hits+misses)
system.cpu2.dcache.ReadReq_avg_miss_latency::.cpu2.data 128258.639563                       # average ReadReq miss latency
system.cpu2.dcache.ReadReq_avg_miss_latency::total 128258.639563                       # average ReadReq miss latency
system.cpu2.dcache.ReadReq_avg_mshr_miss_latency::.cpu2.data 126258.639563                       # average ReadReq mshr miss latency
system.cpu2.dcache.ReadReq_avg_mshr_miss_latency::total 126258.639563                       # average ReadReq mshr miss latency
system.cpu2.dcache.ReadReq_hits::.cpu2.data      5170840                       # number of ReadReq hits
system.cpu2.dcache.ReadReq_hits::total        5170840                       # number of ReadReq hits
system.cpu2.dcache.ReadReq_miss_latency::.cpu2.data  95374920000                       # number of ReadReq miss cycles
system.cpu2.dcache.ReadReq_miss_latency::total  95374920000                       # number of ReadReq miss cycles
system.cpu2.dcache.ReadReq_miss_rate::.cpu2.data     0.125728                       # miss rate for ReadReq accesses
system.cpu2.dcache.ReadReq_miss_rate::total     0.125728                       # miss rate for ReadReq accesses
system.cpu2.dcache.ReadReq_misses::.cpu2.data       743614                       # number of ReadReq misses
system.cpu2.dcache.ReadReq_misses::total       743614                       # number of ReadReq misses
system.cpu2.dcache.ReadReq_mshr_miss_latency::.cpu2.data  93887692000                       # number of ReadReq MSHR miss cycles
system.cpu2.dcache.ReadReq_mshr_miss_latency::total  93887692000                       # number of ReadReq MSHR miss cycles
system.cpu2.dcache.ReadReq_mshr_miss_rate::.cpu2.data     0.125728                       # mshr miss rate for ReadReq accesses
system.cpu2.dcache.ReadReq_mshr_miss_rate::total     0.125728                       # mshr miss rate for ReadReq accesses
system.cpu2.dcache.ReadReq_mshr_misses::.cpu2.data       743614                       # number of ReadReq MSHR misses
system.cpu2.dcache.ReadReq_mshr_misses::total       743614                       # number of ReadReq MSHR misses
system.cpu2.dcache.WriteReq_accesses::.cpu2.data      1837598                       # number of WriteReq accesses(hits+misses)
system.cpu2.dcache.WriteReq_accesses::total      1837598                       # number of WriteReq accesses(hits+misses)
system.cpu2.dcache.WriteReq_avg_miss_latency::.cpu2.data 83817.303045                       # average WriteReq miss latency
system.cpu2.dcache.WriteReq_avg_miss_latency::total 83817.303045                       # average WriteReq miss latency
system.cpu2.dcache.WriteReq_avg_mshr_miss_latency::.cpu2.data 81817.303045                       # average WriteReq mshr miss latency
system.cpu2.dcache.WriteReq_avg_mshr_miss_latency::total 81817.303045                       # average WriteReq mshr miss latency
system.cpu2.dcache.WriteReq_hits::.cpu2.data      1835529                       # number of WriteReq hits
system.cpu2.dcache.WriteReq_hits::total       1835529                       # number of WriteReq hits
system.cpu2.dcache.WriteReq_miss_latency::.cpu2.data    173418000                       # number of WriteReq miss cycles
system.cpu2.dcache.WriteReq_miss_latency::total    173418000                       # number of WriteReq miss cycles
system.cpu2.dcache.WriteReq_miss_rate::.cpu2.data     0.001126                       # miss rate for WriteReq accesses
system.cpu2.dcache.WriteReq_miss_rate::total     0.001126                       # miss rate for WriteReq accesses
system.cpu2.dcache.WriteReq_misses::.cpu2.data         2069                       # number of WriteReq misses
system.cpu2.dcache.WriteReq_misses::total         2069                       # number of WriteReq misses
system.cpu2.dcache.WriteReq_mshr_miss_latency::.cpu2.data    169280000                       # number of WriteReq MSHR miss cycles
system.cpu2.dcache.WriteReq_mshr_miss_latency::total    169280000                       # number of WriteReq MSHR miss cycles
system.cpu2.dcache.WriteReq_mshr_miss_rate::.cpu2.data     0.001126                       # mshr miss rate for WriteReq accesses
system.cpu2.dcache.WriteReq_mshr_miss_rate::total     0.001126                       # mshr miss rate for WriteReq accesses
system.cpu2.dcache.WriteReq_mshr_misses::.cpu2.data         2069                       # number of WriteReq MSHR misses
system.cpu2.dcache.WriteReq_mshr_misses::total         2069                       # number of WriteReq MSHR misses
system.cpu2.dcache.avg_blocked_cycles::no_mshrs          nan                       # average number of cycles each access was blocked
system.cpu2.dcache.avg_blocked_cycles::no_targets          nan                       # average number of cycles each access was blocked
system.cpu2.dcache.blocked::no_mshrs                0                       # number of cycles access was blocked
system.cpu2.dcache.blocked::no_targets              0                       # number of cycles access was blocked
system.cpu2.dcache.blocked_cycles::no_mshrs            0                       # number of cycles access was blocked
system.cpu2.dcache.blocked_cycles::no_targets            0                       # number of cycles access was blocked
system.cpu2.dcache.demand_accesses::.cpu2.data      7752052                       # number of demand (read+write) accesses
system.cpu2.dcache.demand_accesses::total      7752052                       # number of demand (read+write) accesses
system.cpu2.dcache.demand_avg_miss_latency::.cpu2.data 128135.330965                       # average overall miss latency
system.cpu2.dcache.demand_avg_miss_latency::total 128135.330965                       # average overall miss latency
system.cpu2.dcache.demand_avg_mshr_miss_latency::.cpu2.data 126135.330965                       # average overall mshr miss latency
system.cpu2.dcache.demand_avg_mshr_miss_latency::total 126135.330965                       # average overall mshr miss latency
system.cpu2.dcache.demand_hits::.cpu2.data      7006369                       # number of demand (read+write) hits
system.cpu2.dcache.demand_hits::total         7006369                       # number of demand (read+write) hits
system.cpu2.dcache.demand_miss_latency::.cpu2.data  95548338000                       # number of demand (read+write) miss cycles
system.cpu2.dcache.demand_miss_latency::total  95548338000                       # number of demand (read+write) miss cycles
system.cpu2.dcache.demand_miss_rate::.cpu2.data     0.096192                       # miss rate for demand accesses
system.cpu2.dcache.demand_miss_rate::total     0.096192                       # miss rate for demand accesses
system.cpu2.dcache.demand_misses::.cpu2.data       745683                       # number of demand (read+write) misses
system.cpu2.dcache.demand_misses::total        745683                       # number of demand (read+write) misses
system.cpu2.dcache.demand_mshr_miss_latency::.cpu2.data  94056972000                       # number of demand (read+write) MSHR miss cycles
system.cpu2.dcache.demand_mshr_miss_latency::total  94056972000                       # number of demand (read+write) MSHR miss cycles
system.cpu2.dcache.demand_mshr_miss_rate::.cpu2.data     0.096192                       # mshr miss rate for demand accesses
system.cpu2.dcache.demand_mshr_miss_rate::total     0.096192                       # mshr miss rate for demand accesses
system.cpu2.dcache.demand_mshr_misses::.cpu2.data       745683                       # number of demand (read+write) MSHR misses
system.cpu2.dcache.demand_mshr_misses::total       745683                       # number of demand (read+write) MSHR misses
system.cpu2.dcache.overall_accesses::.cpu2.data      7752052                       # number of overall (read+write) accesses
system.cpu2.dcache.overall_accesses::total      7752052                       # number of overall (read+write) accesses
system.cpu2.dcache.overall_avg_miss_latency::.cpu2.data 128135.330965                       # average overall miss latency
system.cpu2.dcache.overall_avg_miss_latency::total 128135.330965                       # average overall miss latency
system.cpu2.dcache.overall_avg_mshr_miss_latency::.cpu2.data 126135.330965                       # average overall mshr miss latency
system.cpu2.dcache.overall_avg_mshr_miss_latency::total 126135.330965                       # average overall mshr miss latency
system.cpu2.dcache.overall_hits::.cpu2.data      7006369                       # number of overall hits
system.cpu2.dcache.overall_hits::total        7006369                       # number of overall hits
system.cpu2.dcache.overall_miss_latency::.cpu2.data  95548338000                       # number of overall miss cycles
system.cpu2.dcache.overall_miss_latency::total  95548338000                       # number of overall miss cycles
system.cpu2.dcache.overall_miss_rate::.cpu2.data     0.096192                       # miss rate for overall accesses
system.cpu2.dcache.overall_miss_rate::total     0.096192                       # miss rate for overall accesses
system.cpu2.dcache.overall_misses::.cpu2.data       745683                       # number of overall misses
system.cpu2.dcache.overall_misses::total       745683                       # number of overall misses
system.cpu2.dcache.overall_mshr_miss_latency::.cpu2.data  94056972000                       # number of overall MSHR miss cycles
system.cpu2.dcache.overall_mshr_miss_latency::total  94056972000                       # number of overall MSHR miss cycles
system.cpu2.dcache.overall_mshr_miss_rate::.cpu2.data     0.096192                       # mshr miss rate for overall accesses
system.cpu2.dcache.overall_mshr_miss_rate::total     0.096192                       # mshr miss rate for overall accesses
system.cpu2.dcache.overall_mshr_misses::.cpu2.data       745683                       # number of overall MSHR misses
system.cpu2.dcache.overall_mshr_misses::total       745683                       # number of overall MSHR misses
system.cpu2.dcache.pwrStateResidencyTicks::UNDEFINED 181776619000                       # Cumulative time (in ticks) in various power states
system.cpu2.dcache.replacements                744659                       # number of replacements
system.cpu2.dcache.tags.age_task_id_blocks_1024::0           14                       # Occupied blocks per task id
system.cpu2.dcache.tags.age_task_id_blocks_1024::1          108                       # Occupied blocks per task id
[...]
system.mem_ctrl.wrPerTurnAround::19             26151     30.12%     91.15% # Writes before turning the bus around for reads
system.mem_ctrl.wrPerTurnAround::20              4533      5.22%     96.37% # Writes before turning the bus around for reads
system.mem_ctrl.wrPerTurnAround::21              1536      1.77%     98.14% # Writes before turning the bus around for reads
system.mem_ctrl.wrPerTurnAround::22               528      0.61%     98.75% # Writes before turning the bus around for reads
system.mem_ctrl.wrPerTurnAround::23               306      0.35%     99.10% # Writes before turning the bus around for reads
system.mem_ctrl.wrPerTurnAround::24               256      0.29%     99.40% # Writes before turning the bus around for reads
system.mem_ctrl.wrPerTurnAround::25               167      0.19%     99.59% # Writes before turning the bus around for reads
system.mem_ctrl.wrPerTurnAround::26               153      0.18%     99.77% # Writes before turning the bus around for reads
system.mem_ctrl.wrPerTurnAround::27               107      0.12%     99.89% # Writes before turning the bus around for reads
system.mem_ctrl.wrPerTurnAround::28                59      0.07%     99.96% # Writes before turning the bus around for reads
system.mem_ctrl.wrPerTurnAround::29                25      0.03%     99.99% # Writes before turning the bus around for reads
system.mem_ctrl.wrPerTurnAround::30                 9      0.01%    100.00% # Writes before turning the bus around for reads
system.mem_ctrl.wrPerTurnAround::31                 2      0.00%    100.00% # Writes before turning the bus around for reads
system.mem_ctrl.wrPerTurnAround::40                 1      0.00%    100.00% # Writes before turning the bus around for reads
system.mem_ctrl.wrPerTurnAround::total          86818                       # Writes before turning the bus around for reads
system.mem_ctrl.wrQLenPdf::0                        1                       # What write queue length does an incoming req see
system.mem_ctrl.wrQLenPdf::1                        1                       # What write queue length does an incoming req see
system.mem_ctrl.wrQLenPdf::2                        1                       # What write queue length does an incoming req see
system.mem_ctrl.wrQLenPdf::3                        1                       # What write queue length does an incoming req see
system.mem_ctrl.wrQLenPdf::4                        1                       # What write queue length does an incoming req see
system.mem_ctrl.wrQLenPdf::5                        1                       # What write queue length does an incoming req see
system.mem_ctrl.wrQLenPdf::6                        1                       # What write queue length does an incoming req see
system.mem_ctrl.wrQLenPdf::7                        1                       # What write queue length does an incoming req see
system.mem_ctrl.wrQLenPdf::8                        1                       # What write queue length does an incoming req see
system.mem_ctrl.wrQLenPdf::9                        1                       # What write queue length does an incoming req see
system.mem_ctrl.wrQLenPdf::10                       1                       # What write queue length does an incoming req see
system.mem_ctrl.wrQLenPdf::11                       1                       # What write queue length does an incoming req see
system.mem_ctrl.wrQLenPdf::12                       1                       # What write queue length does an incoming req see
system.mem_ctrl.wrQLenPdf::13                       1                       # What write queue length does an incoming req see
system.mem_ctrl.wrQLenPdf::14                       1                       # What write queue length does an incoming req see
system.mem_ctrl.wrQLenPdf::15                   66394                       # What write queue length does an incoming req see
system.mem_ctrl.wrQLenPdf::16                   72165                       # What write queue length does an incoming req see
system.mem_ctrl.wrQLenPdf::17                   81623                       # What write queue length does an incoming req see
system.mem_ctrl.wrQLenPdf::18                   84996                       # What write queue length does an incoming req see
system.mem_ctrl.wrQLenPdf::19                   86358                       # What write queue length does an incoming req see
system.mem_ctrl.wrQLenPdf::20                   87533                       # What write queue length does an incoming req see
system.mem_ctrl.wrQLenPdf::21                   88660                       # What write queue length does an incoming req see
system.mem_ctrl.wrQLenPdf::22                   90510                       # What write queue length does an incoming req see
system.mem_ctrl.wrQLenPdf::23                   91024                       # What write queue length does an incoming req see
system.mem_ctrl.wrQLenPdf::24                   91881                       # What write queue length does an incoming req see
system.mem_ctrl.wrQLenPdf::25                   92757                       # What write queue length does an incoming req see
system.mem_ctrl.wrQLenPdf::26                   96788                       # What write queue length does an incoming req see
system.mem_ctrl.wrQLenPdf::27                   93517                       # What write queue length does an incoming req see
system.mem_ctrl.wrQLenPdf::28                   96316                       # What write queue length does an incoming req see
system.mem_ctrl.wrQLenPdf::29                   96595                       # What write queue length does an incoming req see
system.mem_ctrl.wrQLenPdf::30                   88024                       # What write queue length does an incoming req see
system.mem_ctrl.wrQLenPdf::31                   87747                       # What write queue length does an incoming req see
system.mem_ctrl.wrQLenPdf::32                   87612                       # What write queue length does an incoming req see
system.mem_ctrl.wrQLenPdf::33                    1120                       # What write queue length does an incoming req see
system.mem_ctrl.wrQLenPdf::34                     177                       # What write queue length does an incoming req see
system.mem_ctrl.wrQLenPdf::35                      76                       # What write queue length does an incoming req see
system.mem_ctrl.wrQLenPdf::36                      45                       # What write queue length does an incoming req see
system.mem_ctrl.wrQLenPdf::37                      32                       # What write queue length does an incoming req see
system.mem_ctrl.wrQLenPdf::38                      14                       # What write queue length does an incoming req see
system.mem_ctrl.wrQLenPdf::39                       7                       # What write queue length does an incoming req see
system.mem_ctrl.wrQLenPdf::40                      14                       # What write queue length does an incoming req see
system.mem_ctrl.wrQLenPdf::41                       4                       # What write queue length does an incoming req see
system.mem_ctrl.wrQLenPdf::42                       3                       # What write queue length does an incoming req see
system.mem_ctrl.wrQLenPdf::43                       1                       # What write queue length does an incoming req see
system.mem_ctrl.wrQLenPdf::44                       1                       # What write queue length does an incoming req see
system.mem_ctrl.wrQLenPdf::45                       1                       # What write queue length does an incoming req see
system.mem_ctrl.wrQLenPdf::46                       0                       # What write queue length does an incoming req see
system.mem_ctrl.wrQLenPdf::47                       0                       # What write queue length does an incoming req see
system.mem_ctrl.wrQLenPdf::48                       0                       # What write queue length does an incoming req see
system.mem_ctrl.wrQLenPdf::49                       0                       # What write queue length does an incoming req see
system.mem_ctrl.wrQLenPdf::50                       0                       # What write queue length does an incoming req see
system.mem_ctrl.wrQLenPdf::51                       0                       # What write queue length does an incoming req see
system.mem_ctrl.wrQLenPdf::52                       0                       # What write queue length does an incoming req see
system.mem_ctrl.wrQLenPdf::53                       0                       # What write queue length does an incoming req see
system.mem_ctrl.wrQLenPdf::54                       0                       # What write queue length does an incoming req see
system.mem_ctrl.wrQLenPdf::55                       0                       # What write queue length does an incoming req see
system.mem_ctrl.wrQLenPdf::56                       0                       # What write queue length does an incoming req see
system.mem_ctrl.wrQLenPdf::57                       0                       # What write queue length does an incoming req see
system.mem_ctrl.wrQLenPdf::58                       0                       # What write queue length does an incoming req see
system.mem_ctrl.wrQLenPdf::59                       0                       # What write queue length does an incoming req see
system.mem_ctrl.wrQLenPdf::60                       0                       # What write queue length does an incoming req see
system.mem_ctrl.wrQLenPdf::61                       0                       # What write queue length does an incoming req see
system.mem_ctrl.wrQLenPdf::62                       0                       # What write queue length does an incoming req see
system.mem_ctrl.wrQLenPdf::63                       0                       # What write queue length does an incoming req see
system.mem_ctrl.writeBursts                   1582010                       # Number of DRAM write bursts, including those merged in the write queue
system.mem_ctrl.writePktSize::0                     0                       # Write request sizes (log2)
system.mem_ctrl.writePktSize::1                     0                       # Write request sizes (log2)
system.mem_ctrl.writePktSize::2                     0                       # Write request sizes (log2)
system.mem_ctrl.writePktSize::3                     0                       # Write request sizes (log2)
system.mem_ctrl.writePktSize::4                     0                       # Write request sizes (log2)
system.mem_ctrl.writePktSize::5                     0                       # Write request sizes (log2)
system.mem_ctrl.writePktSize::6               1582010                       # Write request sizes (log2)
system.mem_ctrl.writeReqs                     1582010                       # Number of write requests accepted
system.mem_ctrl.writeRowHitRate                 62.41                       # Row buffer hit rate for writes
system.mem_ctrl.writeRowHits                   987404                       # Number of row buffer hits during writes
system.mem_ctrl_0.actBackEnergy           80744801790                       # Energy for active background per rank (pJ)
system.mem_ctrl_0.actEnergy                7597895340                       # Energy for activate commands per rank (pJ)
system.mem_ctrl_0.actPowerDownEnergy                0                       # Energy for active power-down per rank (pJ)
system.mem_ctrl_0.averagePower             651.858611                       # Core power per rank (mW)
system.mem_ctrl_0.memoryStateTime::IDLE     865202733                       # Time in different power states
system.mem_ctrl_0.memoryStateTime::REF     6069700000                       # Time in different power states
system.mem_ctrl_0.memoryStateTime::SREF             0                       # Time in different power states
system.mem_ctrl_0.memoryStateTime::PRE_PDN            0                       # Time in different power states
system.mem_ctrl_0.memoryStateTime::ACT   174841716267                       # Time in different power states
system.mem_ctrl_0.memoryStateTime::ACT_PDN            0                       # Time in different power states
system.mem_ctrl_0.preBackEnergy            1806599520                       # Energy for precharge background per rank (pJ)
system.mem_ctrl_0.preEnergy                4038369555                       # Energy for precharge commands per rank (pJ)
system.mem_ctrl_0.prePowerDownEnergy                0                       # Energy for precharge power-down per rank (pJ)
system.mem_ctrl_0.readEnergy               5823840960                       # Energy for read commands per rank (pJ)
system.mem_ctrl_0.refreshEnergy          14348770800.000002                       # Energy for refresh commands per rank (pJ)
system.mem_ctrl_0.selfRefreshEnergy                 0                       # Energy for self refresh per rank (pJ)
system.mem_ctrl_0.totalEnergy            118492654425                       # Total energy per rank (pJ)
system.mem_ctrl_0.totalIdleTime                     0                       # Total Idle time Per DRAM Rank
system.mem_ctrl_0.writeEnergy              4132376460                       # Energy for write commands per rank (pJ)
system.mem_ctrl_1.actBackEnergy           80612665530                       # Energy for active background per rank (pJ)
system.mem_ctrl_1.actEnergy                7598973480                       # Energy for activate commands per rank (pJ)
system.mem_ctrl_1.actPowerDownEnergy                0                       # Energy for active power-down per rank (pJ)
system.mem_ctrl_1.averagePower             651.528627                       # Core power per rank (mW)
system.mem_ctrl_1.memoryStateTime::IDLE     900466760                       # Time in different power states
system.mem_ctrl_1.memoryStateTime::REF     6069700000                       # Time in different power states
system.mem_ctrl_1.memoryStateTime::SREF             0                       # Time in different power states
system.mem_ctrl_1.memoryStateTime::PRE_PDN            0                       # Time in different power states
system.mem_ctrl_1.memoryStateTime::ACT   174806452240                       # Time in different power states
system.mem_ctrl_1.memoryStateTime::ACT_PDN            0                       # Time in different power states
system.mem_ctrl_1.preBackEnergy            1917872160                       # Energy for precharge background per rank (pJ)
system.mem_ctrl_1.preEnergy                4038946395                       # Energy for precharge commands per rank (pJ)
system.mem_ctrl_1.prePowerDownEnergy                0                       # Energy for precharge power-down per rank (pJ)
system.mem_ctrl_1.readEnergy               5789826000                       # Energy for read commands per rank (pJ)
system.mem_ctrl_1.refreshEnergy          14348770800.000002                       # Energy for refresh commands per rank (pJ)
system.mem_ctrl_1.selfRefreshEnergy                 0                       # Energy for self refresh per rank (pJ)
system.mem_ctrl_1.totalEnergy            118432670925                       # Total energy per rank (pJ)
system.mem_ctrl_1.totalIdleTime                     0                       # Total Idle time Per DRAM Rank
system.mem_ctrl_1.writeEnergy              4125616560                       # Energy for write commands per rank (pJ)
system.membus.pkt_count_system.l2cache.mem_side::system.mem_ctrl.port      4868579                       # Packet count per connected master and slave (bytes)
system.membus.pkt_count_system.l2cache.mem_side::total      4868579                       # Packet count per connected master and slave (bytes)
system.membus.pkt_count::total                4868579                       # Packet count per connected master and slave (bytes)
system.membus.pkt_size_system.l2cache.mem_side::system.mem_ctrl.port    205349632                       # Cumulative packet size per connected master and slave (bytes)
system.membus.pkt_size_system.l2cache.mem_side::total    205349632                       # Cumulative packet size per connected master and slave (bytes)
system.membus.pkt_size::total               205349632                       # Cumulative packet size per connected master and slave (bytes)
system.membus.pwrStateResidencyTicks::UNDEFINED 181776619000                       # Cumulative time (in ticks) in various power states
system.membus.reqLayer8.occupancy          9640888924                       # Layer occupancy (ticks)
system.membus.reqLayer8.utilization               5.3                       # Layer utilization (%)
system.membus.respLayer0.occupancy         9133850163                       # Layer occupancy (ticks)
system.membus.respLayer0.utilization              5.0                       # Layer utilization (%)
system.membus.snoopTraffic                          0                       # Total snoop traffic (bytes)
system.membus.snoop_fanout::samples           1626578                       # Request fanout histogram
system.membus.snoop_fanout::mean                    0                       # Request fanout histogram
system.membus.snoop_fanout::stdev                   0                       # Request fanout histogram
system.membus.snoop_fanout::underflows              0      0.00%      0.00% # Request fanout histogram
system.membus.snoop_fanout::0                 1626578    100.00%    100.00% # Request fanout histogram
system.membus.snoop_fanout::1                       0      0.00%    100.00% # Request fanout histogram
system.membus.snoop_fanout::overflows               0      0.00%    100.00% # Request fanout histogram
system.membus.snoop_fanout::min_value               0                       # Request fanout histogram
system.membus.snoop_fanout::max_value               0                       # Request fanout histogram
system.membus.snoop_fanout::total             1626578                       # Request fanout histogram
system.membus.snoop_filter.hit_multi_requests            0                       # Number of requests hitting in the snoop filter with multiple (>1) holders of the requested data.
system.membus.snoop_filter.hit_multi_snoops            0                       # Number of snoops hitting in the snoop filter with multiple (>1) holders of the requested data.
system.membus.snoop_filter.hit_single_requests      1615423                       # Number of requests hitting in the snoop filter with a single holder of the requested data.
system.membus.snoop_filter.hit_single_snoops            0                       # Number of snoops hitting in the snoop filter with a single holder of the requested data.
system.membus.snoop_filter.tot_requests       3242001                       # Total number of requests made to the snoop filter.
system.membus.snoop_filter.tot_snoops               0                       # Total number of snoops made to the snoop filter.
system.membus.snoops                                0                       # Total snoops (count)
system.membus.trans_dist::ReadResp            1586682                       # Transaction distribution
system.membus.trans_dist::WritebackDirty      1582010                       # Transaction distribution
system.membus.trans_dist::CleanEvict            33413                       # Transaction distribution
system.membus.trans_dist::ReadExReq             39896                       # Transaction distribution
system.membus.trans_dist::ReadExResp            39896                       # Transaction distribution
system.membus.trans_dist::ReadSharedReq       1586682                       # Transaction distribution

---------- End Simulation Statistics   ----------
