
---------- Begin Simulation Statistics ----------
final_tick                               181459466000                       # Number of ticks from beginning of simulation (restored from checkpoints and never reset)
host_inst_rate                                 386828                       # Simulator instruction rate (inst/s)
host_mem_usage                                 781268                       # Number of bytes of host memory used
host_op_rate                                   695969                       # Simulator op (including micro ops) rate (op/s)
host_seconds                                   459.20                       # Real time elapsed on the host
host_tick_rate                              395163549                       # Simulator tick rate (ticks/s)
sim_freq                                 1000000000000                       # Frequency of simulated ticks
sim_insts                                   177631917                       # Number of instructions simulated
sim_ops                                     319589588                       # Number of ops (including micro ops) simulated
sim_seconds                                  0.181459                       # Number of seconds simulated
sim_ticks                                181459466000                       # Number of ticks simulated
system.clk_domain.clock                          1000                       # Clock period in ticks
system.clk_domain.voltage_domain.voltage            1                       # Voltage in Volts
system.cpu0.Branches                         11270133                       # Number of branches fetched
system.cpu0.committedInsts                   49993359                       # Number of instructions committed
system.cpu0.committedOps                     93403858                       # Number of ops (including micro ops) committed
system.cpu0.dcache.ReadReq_accesses::.cpu0.data     10893640                       # number of ReadReq accesses(hits+misses)
system.cpu0.dcache.ReadReq_accesses::total     10893640                       # number of ReadReq accesses(hits+misses)
system.cpu0.dcache.ReadReq_avg_miss_latency::.cpu0.data 107942.069167                       # average ReadReq miss latency
system.cpu0.dcache.ReadReq_avg_miss_latency::total 107942.069167                       # average ReadReq miss latency
system.cpu0.dcache.ReadReq_avg_mshr_miss_latency::.cpu0.data 105942.069167                       # average ReadReq mshr miss latency
system.cpu0.dcache.ReadReq_avg_mshr_miss_latency::total 105942.069167                       # average ReadReq mshr miss latency
system.cpu0.dcache.ReadReq_hits::.cpu0.data     10879934                       # number of ReadReq hits
system.cpu0.dcache.ReadReq_hits::total       10879934                       # number of ReadReq hits
system.cpu0.dcache.ReadReq_miss_latency::.cpu0.data   1479454000                       # number of ReadReq miss cycles
system.cpu0.dcache.ReadReq_miss_latency::total   1479454000                       # number of ReadReq miss cycles
system.cpu0.dcache.ReadReq_miss_rate::.cpu0.data     0.001258                       # miss rate for ReadReq accesses
system.cpu0.dcache.ReadReq_miss_rate::total     0.001258                       # miss rate for ReadReq accesses
system.cpu0.dcache.ReadReq_misses::.cpu0.data        13706                       # number of ReadReq misses
system.cpu0.dcache.ReadReq_misses::total        13706                       # number of ReadReq misses
system.cpu0.dcache.ReadReq_mshr_miss_latency::.cpu0.data   1452042000                       # number of ReadReq MSHR miss cycles
system.cpu0.dcache.ReadReq_mshr_miss_latency::total   1452042000                       # number of ReadReq MSHR miss cycles
system.cpu0.dcache.ReadReq_mshr_miss_rate::.cpu0.data     0.001258                       # mshr miss rate for ReadReq accesses
system.cpu0.dcache.ReadReq_mshr_miss_rate::total     0.001258                       # mshr miss rate for ReadReq accesses
system.cpu0.dcache.ReadReq_mshr_misses::.cpu0.data        13706                       # number of ReadReq MSHR misses
system.cpu0.dcache.ReadReq_mshr_misses::total        13706                       # number of ReadReq MSHR misses
system.cpu0.dcache.WriteReq_accesses::.cpu0.data      7273358                       # number of WriteReq accesses(hits+misses)
system.cpu0.dcache.WriteReq_accesses::total      7273358                       # number of WriteReq accesses(hits+misses)
system.cpu0.dcache.WriteReq_avg_miss_latency::.cpu0.data 60743.813936                       # average WriteReq miss latency
system.cpu0.dcache.WriteReq_avg_miss_latency::total 60743.813936                       # average WriteReq miss latency
system.cpu0.dcache.WriteReq_avg_mshr_miss_latency::.cpu0.data 58743.813936                       # average WriteReq mshr miss latency
system.cpu0.dcache.WriteReq_avg_mshr_miss_latency::total 58743.813936                       # average WriteReq mshr miss latency
system.cpu0.dcache.WriteReq_hits::.cpu0.data      7221548                       # number of WriteReq hits
system.cpu0.dcache.WriteReq_hits::total       7221548                       # number of WriteReq hits
system.cpu0.dcache.WriteReq_miss_latency::.cpu0.data   3147137000                       # number of WriteReq miss cycles
system.cpu0.dcache.WriteReq_miss_latency::total   3147137000                       # number of WriteReq miss cycles
system.cpu0.dcache.WriteReq_miss_rate::.cpu0.data     0.007123                       # miss rate for WriteReq accesses
system.cpu0.dcache.WriteReq_miss_rate::total     0.007123                       # miss rate for WriteReq accesses
system.cpu0.dcache.WriteReq_misses::.cpu0.data        51810                       # number of WriteReq misses
system.cpu0.dcache.WriteReq_misses::total        51810                       # number of WriteReq misses
system.cpu0.dcache.WriteReq_mshr_miss_latency::.cpu0.data   3043517000                       # number of WriteReq MSHR miss cycles
system.cpu0.dcache.WriteReq_mshr_miss_latency::total   3043517000                       # number of WriteReq MSHR miss cycles
system.cpu0.dcache.WriteReq_mshr_miss_rate::.cpu0.data     0.007123                       # mshr miss rate for WriteReq accesses
system.cpu0.dcache.WriteReq_mshr_miss_rate::total     0.007123                       # mshr miss rate for WriteReq accesses
system.cpu0.dcache.WriteReq_mshr_misses::.cpu0.data        51810                       # number of WriteReq MSHR misses
system.cpu0.dcache.WriteReq_mshr_misses::total        51810                       # number of WriteReq MSHR misses
system.cpu0.dcache.avg_blocked_cycles::no_mshrs          nan                       # average number of cycles each access was blocked
system.cpu0.dcache.avg_blocked_cycles::no_targets          nan                       # average number of cycles each access was blocked
system.cpu0.dcache.blocked::no_mshrs                0                       # number of cycles access was blocked
system.cpu0.dcache.blocked::no_targets              0                       # number of cycles access was blocked
system.cpu0.dcache.blocked_cycles::no_mshrs            0                       # number of cycles access was blocked
system.cpu0.dcache.blocked_cycles::no_targets            0                       # number of cycles access was blocked
system.cpu0.dcache.demand_accesses::.cpu0.data     18166998                       # number of demand (read+write) accesses
system.cpu0.dcache.demand_accesses::total     18166998                       # number of demand (read+write) accesses
system.cpu0.dcache.demand_avg_miss_latency::.cpu0.data 70617.726967                       # average overall miss latency
system.cpu0.dcache.demand_avg_miss_latency::total 70617.726967                       # average overall miss latency
system.cpu0.dcache.demand_avg_mshr_miss_latency::.cpu0.data 68617.726967                       # average overall mshr miss latency
system.cpu0.dcache.demand_avg_mshr_miss_latency::total 68617.726967                       # average overall mshr miss latency
system.cpu0.dcache.demand_hits::.cpu0.data     18101482                       # number of demand (read+write) hits
system.cpu0.dcache.demand_hits::total        18101482                       # number of demand (read+write) hits
system.cpu0.dcache.demand_miss_latency::.cpu0.data   4626591000                       # number of demand (read+write) miss cycles
system.cpu0.dcache.demand_miss_latency::total   4626591000                       # number of demand (read+write) miss cycles
system.cpu0.dcache.demand_miss_rate::.cpu0.data     0.003606                       # miss rate for demand accesses
system.cpu0.dcache.demand_miss_rate::total     0.003606                       # miss rate for demand accesses
system.cpu0.dcache.demand_misses::.cpu0.data        65516                       # number of demand (read+write) misses
system.cpu0.dcache.demand_misses::total         65516                       # number of demand (read+write) misses
system.cpu0.dcache.demand_mshr_miss_latency::.cpu0.data   4495559000                       # number of demand (read+write) MSHR miss cycles
system.cpu0.dcache.demand_mshr_miss_latency::total   4495559000                       # number of demand (read+write) MSHR miss cycles
system.cpu0.dcache.demand_mshr_miss_rate::.cpu0.data     0.003606                       # mshr miss rate for demand accesses
system.cpu0.dcache.demand_mshr_miss_rate::total     0.003606                       # mshr miss rate for demand accesses
system.cpu0.dcache.demand_mshr_misses::.cpu0.data        65516                       # number of demand (read+write) MSHR misses
system.cpu0.dcache.demand_mshr_misses::total        65516                       # number of demand (read+write) MSHR misses
system.cpu0.dcache.overall_accesses::.cpu0.data     18166998                       # number of overall (read+write) accesses
system.cpu0.dcache.overall_accesses::total     18166998                       # number of overall (read+write) accesses
system.cpu0.dcache.overall_avg_miss_latency::.cpu0.data 70617.726967                       # average overall miss latency
system.cpu0.dcache.overall_avg_miss_latency::total 70617.726967                       # average overall miss latency
system.cpu0.dcache.overall_avg_mshr_miss_latency::.cpu0.data 68617.726967                       # average overall mshr miss latency
system.cpu0.dcache.overall_avg_mshr_miss_latency::total 68617.726967                       # average overall mshr miss latency
system.cpu0.dcache.overall_hits::.cpu0.data     18101482                       # number of overall hits
system.cpu0.dcache.overall_hits::total       18101482                       # number of overall hits
system.cpu0.dcache.overall_miss_latency::.cpu0.data   4626591000                       # number of overall miss cycles
system.cpu0.dcache.overall_miss_latency::total   4626591000                       # number of overall miss cycles
system.cpu0.dcache.overall_miss_rate::.cpu0.data     0.003606                       # miss rate for overall accesses
system.cpu0.dcache.overall_miss_rate::total     0.003606                       # miss rate for overall accesses
system.cpu0.dcache.overall_misses::.cpu0.data        65516                       # number of overall misses
system.cpu0.dcache.overall_misses::total        65516                       # number of overall misses
system.cpu0.dcache.overall_mshr_miss_latency::.cpu0.data   4495559000                       # number of overall MSHR miss cycles
system.cpu0.dcache.overall_mshr_miss_latency::total   4495559000                       # number of overall MSHR miss cycles
system.cpu0.dcache.overall_mshr_miss_rate::.cpu0.data     0.003606                       # mshr miss rate for overall accesses
system.cpu0.dcache.overall_mshr_miss_rate::total     0.003606                       # mshr miss rate for overall accesses
system.cpu0.dcache.overall_mshr_misses::.cpu0.data        65516                       # number of overall MSHR misses
system.cpu0.dcache.overall_mshr_misses::total        65516                       # number of overall MSHR misses
system.cpu0.dcache.pwrStateResidencyTicks::UNDEFINED 181459466000                       # Cumulative time (in ticks) in various power states
system.cpu0.dcache.replacements                 64492                       # number of replacements
system.cpu0.dcache.tags.age_task_id_blocks_1024::0            1                       # Occupied blocks per task id
system.cpu0.dcache.tags.age_task_id_blocks_1024::1           15                       # Occupied blocks per task id
system.cpu0.dcache.tags.age_task_id_blocks_1024::2          161                       # Occupied blocks per task id
system.cpu0.dcache.tags.age_task_id_blocks_1024::3          761                       # Occupied blocks per task id
system.cpu0.dcache.tags.age_task_id_blocks_1024::4           86                       # Occupied blocks per task id
system.cpu0.dcache.tags.avg_refs           277.291013                       # Average number of references to valid blocks.
system.cpu0.dcache.tags.data_accesses        36399512                       # Number of data accesses
system.cpu0.dcache.tags.occ_blocks::.cpu0.data  1020.395193                       # Average occupied blocks per requestor
system.cpu0.dcache.tags.occ_percent::.cpu0.data     0.996480                       # Average percentage of cache occupancy
system.cpu0.dcache.tags.occ_percent::total     0.996480                       # Average percentage of cache occupancy
system.cpu0.dcache.tags.occ_task_id_blocks::1024         1024                       # Occupied blocks per task id
system.cpu0.dcache.tags.occ_task_id_percent::1024            1                       # Percentage of cache occupancy per task id
system.cpu0.dcache.tags.pwrStateResidencyTicks::UNDEFINED 181459466000                       # Cumulative time (in ticks) in various power states
system.cpu0.dcache.tags.sampled_refs            65516                       # Sample count of references to valid blocks.
system.cpu0.dcache.tags.tag_accesses         36399512                       # Number of tag accesses
system.cpu0.dcache.tags.tagsinuse         1020.395193                       # Cycle average of tags in use
system.cpu0.dcache.tags.total_refs           18166998                       # Total number of references to valid blocks.
system.cpu0.dcache.tags.warmup_cycle           220000                       # Cycle when the warmup percentage was hit.
system.cpu0.dcache.writebacks::.writebacks        61344                       # number of writebacks
system.cpu0.dcache.writebacks::total            61344                       # number of writebacks
system.cpu0.dtb.rdAccesses                   10893640                       # TLB accesses on read requests
system.cpu0.dtb.rdMisses                         9248                       # TLB misses on read requests
system.cpu0.dtb.walker.pwrStateResidencyTicks::UNDEFINED 181459466000                       # Cumulative time (in ticks) in various power states
system.cpu0.dtb.wrAccesses                    7273358                       # TLB accesses on write requests
system.cpu0.dtb.wrMisses                          899                       # TLB misses on write requests
system.cpu0.icache.ReadReq_accesses::.cpu0.inst     67555256                       # number of ReadReq accesses(hits+misses)
system.cpu0.icache.ReadReq_accesses::total     67555256                       # number of ReadReq accesses(hits+misses)
system.cpu0.icache.ReadReq_avg_miss_latency::.cpu0.inst 26482.251182                       # average ReadReq miss latency
system.cpu0.icache.ReadReq_avg_miss_latency::total 26482.251182                       # average ReadReq miss latency
system.cpu0.icache.ReadReq_avg_mshr_miss_latency::.cpu0.inst 24482.251182                       # average ReadReq mshr miss latency
system.cpu0.icache.ReadReq_avg_mshr_miss_latency::total 24482.251182                       # average ReadReq mshr miss latency
system.cpu0.icache.ReadReq_hits::.cpu0.inst     67329579                       # number of ReadReq hits
system.cpu0.icache.ReadReq_hits::total       67329579                       # number of ReadReq hits
system.cpu0.icache.ReadReq_miss_latency::.cpu0.inst   5976435000                       # number of ReadReq miss cycles
system.cpu0.icache.ReadReq_miss_latency::total   5976435000                       # number of ReadReq miss cycles
system.cpu0.icache.ReadReq_miss_rate::.cpu0.inst     0.003341                       # miss rate for ReadReq accesses
system.cpu0.icache.ReadReq_miss_rate::total     0.003341                       # miss rate for ReadReq accesses
system.cpu0.icache.ReadReq_misses::.cpu0.inst       225677                       # number of ReadReq misses
system.cpu0.icache.ReadReq_misses::total       225677                       # number of ReadReq misses
system.cpu0.icache.ReadReq_mshr_miss_latency::.cpu0.inst   5525081000                       # number of ReadReq MSHR miss cycles
system.cpu0.icache.ReadReq_mshr_miss_latency::total   5525081000                       # number of ReadReq MSHR miss cycles
system.cpu0.icache.ReadReq_mshr_miss_rate::.cpu0.inst     0.003341                       # mshr miss rate for ReadReq accesses
system.cpu0.icache.ReadReq_mshr_miss_rate::total     0.003341                       # mshr miss rate for ReadReq accesses
system.cpu0.icache.ReadReq_mshr_misses::.cpu0.inst       225677                       # number of ReadReq MSHR misses
system.cpu0.icache.ReadReq_mshr_misses::total       225677                       # number of ReadReq MSHR misses
system.cpu0.icache.avg_blocked_cycles::no_mshrs          nan                       # average number of cycles each access was blocked
system.cpu0.icache.avg_blocked_cycles::no_targets          nan                       # average number of cycles each access was blocked
system.cpu0.icache.blocked::no_mshrs                0                       # number of cycles access was blocked
system.cpu0.icache.blocked::no_targets              0                       # number of cycles access was blocked
system.cpu0.icache.blocked_cycles::no_mshrs            0                       # number of cycles access was blocked
system.cpu0.icache.blocked_cycles::no_targets            0                       # number of cycles access was blocked
system.cpu0.icache.demand_accesses::.cpu0.inst     67555256                       # number of demand (read+write) accesses
system.cpu0.icache.demand_accesses::total     67555256                       # number of demand (read+write) accesses
system.cpu0.icache.demand_avg_miss_latency::.cpu0.inst 26482.251182                       # average overall miss latency
system.cpu0.icache.demand_avg_miss_latency::total 26482.251182                       # average overall miss latency
system.cpu0.icache.demand_avg_mshr_miss_latency::.cpu0.inst 24482.251182                       # average overall mshr miss latency
system.cpu0.icache.demand_avg_mshr_miss_latency::total 24482.251182                       # average overall mshr miss latency
system.cpu0.icache.demand_hits::.cpu0.inst     67329579                       # number of demand (read+write) hits
system.cpu0.icache.demand_hits::total        67329579                       # number of demand (read+write) hits
system.cpu0.icache.demand_miss_latency::.cpu0.inst   5976435000                       # number of demand (read+write) miss cycles
system.cpu0.icache.demand_miss_latency::total   5976435000                       # number of demand (read+write) miss cycles
system.cpu0.icache.demand_miss_rate::.cpu0.inst     0.003341                       # miss rate for demand accesses
system.cpu0.icache.demand_miss_rate::total     0.003341                       # miss rate for demand accesses
system.cpu0.icache.demand_misses::.cpu0.inst       225677                       # number of demand (read+write) misses
system.cpu0.icache.demand_misses::total        225677                       # number of demand (read+write) misses
system.cpu0.icache.demand_mshr_miss_latency::.cpu0.inst   5525081000                       # number of demand (read+write) MSHR miss cycles
system.cpu0.icache.demand_mshr_miss_latency::total   5525081000                       # number of demand (read+write) MSHR miss cycles
system.cpu0.icache.demand_mshr_miss_rate::.cpu0.inst     0.003341                       # mshr miss rate for demand accesses
system.cpu0.icache.demand_mshr_miss_rate::total     0.003341                       # mshr miss rate for demand accesses
system.cpu0.icache.demand_mshr_misses::.cpu0.inst       225677                       # number of demand (read+write) MSHR misses
system.cpu0.icache.demand_mshr_misses::total       225677                       # number of demand (read+write) MSHR misses
system.cpu0.icache.overall_accesses::.cpu0.inst     67555256                       # number of overall (read+write) accesses
system.cpu0.icache.overall_accesses::total     67555256                       # number of overall (read+write) accesses
system.cpu0.icache.overall_avg_miss_latency::.cpu0.inst 26482.251182                       # average overall miss latency
system.cpu0.icache.overall_avg_miss_latency::total 26482.251182                       # average overall miss latency
system.cpu0.icache.overall_avg_mshr_miss_latency::.cpu0.inst 24482.251182                       # average overall mshr miss latency
system.cpu0.icache.overall_avg_mshr_miss_latency::total 24482.251182                       # average overall mshr miss latency
system.cpu0.icache.overall_hits::.cpu0.inst     67329579                       # number of overall hits
system.cpu0.icache.overall_hits::total       67329579                       # number of overall hits
system.cpu0.icache.overall_miss_latency::.cpu0.inst   5976435000                       # number of overall miss cycles
system.cpu0.icache.overall_miss_latency::total   5976435000                       # number of overall miss cycles
system.cpu0.icache.overall_miss_rate::.cpu0.inst     0.003341                       # miss rate for overall accesses
system.cpu0.icache.overall_miss_rate::total     0.003341                       # miss rate for overall accesses
system.cpu0.icache.overall_misses::.cpu0.inst       225677                       # number of overall misses
system.cpu0.icache.overall_misses::total       225677                       # number of overall misses
system.cpu0.icache.overall_mshr_miss_latency::.cpu0.inst   5525081000                       # number of overall MSHR miss cycles
system.cpu0.icache.overall_mshr_miss_latency::total   5525081000                       # number of overall MSHR miss cycles
system.cpu0.icache.overall_mshr_miss_rate::.cpu0.inst     0.003341                       # mshr miss rate for overall accesses
system.cpu0.icache.overall_mshr_miss_rate::total     0.003341                       # mshr miss rate for overall accesses
system.cpu0.icache.overall_mshr_misses::.cpu0.inst       225677                       # number of overall MSHR misses
system.cpu0.icache.overall_mshr_misses::total       225677                       # number of overall MSHR misses
system.cpu0.icache.pwrStateResidencyTicks::UNDEFINED 181459466000                       # Cumulative time (in ticks) in various power states
system.cpu0.icache.replacements                225424                       # number of replacements
system.cpu0.icache.tags.age_task_id_blocks_1024::0            6                       # Occupied blocks per task id
system.cpu0.icache.tags.age_task_id_blocks_1024::3           10                       # Occupied blocks per task id
system.cpu0.icache.tags.age_task_id_blocks_1024::4          237                       # Occupied blocks per task id
system.cpu0.icache.tags.avg_refs           299.344887                       # Average number of references to valid blocks.
system.cpu0.icache.tags.data_accesses       135336189                       # Number of data accesses
system.cpu0.icache.tags.occ_blocks::.cpu0.inst   252.709174                       # Average occupied blocks per requestor
system.cpu0.icache.tags.occ_percent::.cpu0.inst     0.987145                       # Average percentage of cache occupancy
system.cpu0.icache.tags.occ_percent::total     0.987145                       # Average percentage of cache occupancy
system.cpu0.icache.tags.occ_task_id_blocks::1024          253                       # Occupied blocks per task id
system.cpu0.icache.tags.occ_task_id_percent::1024     0.988281                       # Percentage of cache occupancy per task id
system.cpu0.icache.tags.pwrStateResidencyTicks::UNDEFINED 181459466000                       # Cumulative time (in ticks) in various power states
system.cpu0.icache.tags.sampled_refs           225677                       # Sample count of references to valid blocks.
system.cpu0.icache.tags.tag_accesses        135336189                       # Number of tag accesses
system.cpu0.icache.tags.tagsinuse          252.709174                       # Cycle average of tags in use
system.cpu0.icache.tags.total_refs           67555256                       # Total number of references to valid blocks.
system.cpu0.icache.tags.warmup_cycle           107000                       # Cycle when the warmup percentage was hit.
system.cpu0.idle_fraction                           0                       # Percentage of idle cycles
system.cpu0.interrupts.clk_domain.clock         16000                       # Clock period in ticks
system.cpu0.interrupts.pwrStateResidencyTicks::UNDEFINED 181459466000                       # Cumulative time (in ticks) in various power states
system.cpu0.itb.rdAccesses                          0                       # TLB accesses on read requests
system.cpu0.itb.rdMisses                            0                       # TLB misses on read requests
system.cpu0.itb.walker.pwrStateResidencyTicks::UNDEFINED 181459466000                       # Cumulative time (in ticks) in various power states
system.cpu0.itb.wrAccesses                   67555256                       # TLB accesses on write requests
system.cpu0.itb.wrMisses                          129                       # TLB misses on write requests
system.cpu0.not_idle_fraction                       1                       # Percentage of non-idle cycles
system.cpu0.numCycles                       181459465                       # number of cpu cycles simulated
system.cpu0.numWorkItemsCompleted                   0                       # number of work items this cpu completed
system.cpu0.numWorkItemsStarted                     0                       # number of work items this cpu started
system.cpu0.num_busy_cycles                 181459465                       # Number of busy cycles
system.cpu0.num_cc_register_reads            57991836                       # number of times the CC registers were read
system.cpu0.num_cc_register_writes           29707227                       # number of times the CC registers were written
system.cpu0.num_conditional_control_insts      9156180                       # number of instructions that are conditional controls
system.cpu0.num_fp_alu_accesses               1222279                       # Number of float alu accesses
system.cpu0.num_fp_insts                      1222279                       # number of float instructions
system.cpu0.num_fp_register_reads             1373646                       # number of times the floating registers were read
system.cpu0.num_fp_register_writes             922686                       # number of times the floating registers were written
system.cpu0.num_func_calls                     950698                       # number of times a function call or return occured
system.cpu0.num_idle_cycles                         0                       # Number of idle cycles
system.cpu0.num_int_alu_accesses             92658795                       # Number of integer alu accesses
system.cpu0.num_int_insts                    92658795                       # number of integer instructions
system.cpu0.num_int_register_reads          179355824                       # number of times the integer registers were read
system.cpu0.num_int_register_writes          74039601                       # number of times the integer registers were written
system.cpu0.num_load_insts                   10887964                       # Number of load instructions
system.cpu0.num_mem_refs                     18161319                       # number of memory refs
system.cpu0.num_store_insts                   7273355                       # Number of store instructions
system.cpu0.num_vec_alu_accesses                    0                       # Number of vector alu accesses
system.cpu0.num_vec_insts                           0                       # number of vector instructions
system.cpu0.num_vec_register_reads                  0                       # number of times the vector registers were read
system.cpu0.num_vec_register_writes                 0                       # number of times the vector registers were written
system.cpu0.op_class::No_OpClass               166629      0.18%      0.18% # Class of executed instruction
system.cpu0.op_class::IntAlu                 74168455     79.41%     79.58% # Class of executed instruction
system.cpu0.op_class::IntMult                  223353      0.24%     79.82% # Class of executed instruction
system.cpu0.op_class::IntDiv                       21      0.00%     79.82% # Class of executed instruction
system.cpu0.op_class::FloatAdd                 117278      0.13%     79.95% # Class of executed instruction
system.cpu0.op_class::FloatCmp                      0      0.00%     79.95% # Class of executed instruction
system.cpu0.op_class::FloatCvt                      0      0.00%     79.95% # Class of executed instruction
system.cpu0.op_class::FloatMult                     0      0.00%     79.95% # Class of executed instruction
system.cpu0.op_class::FloatMultAcc                  0      0.00%     79.95% # Class of executed instruction
system.cpu0.op_class::FloatDiv                      0      0.00%     79.95% # Class of executed instruction
system.cpu0.op_class::FloatMisc                     0      0.00%     79.95% # Class of executed instruction
system.cpu0.op_class::FloatSqrt                     0      0.00%     79.95% # Class of executed instruction
system.cpu0.op_class::SimdAdd                     374      0.00%     79.95% # Class of executed instruction
system.cpu0.op_class::SimdAddAcc                    0      0.00%     79.95% # Class of executed instruction
system.cpu0.op_class::SimdAlu                     100      0.00%     79.95% # Class of executed instruction
system.cpu0.op_class::SimdCmp                       0      0.00%     79.95% # Class of executed instruction
system.cpu0.op_class::SimdCvt                  110388      0.12%     80.07% # Class of executed instruction
system.cpu0.op_class::SimdMisc                 455755      0.49%     80.56% # Class of executed instruction
system.cpu0.op_class::SimdMult                      0      0.00%     80.56% # Class of executed instruction
system.cpu0.op_class::SimdMultAcc                   0      0.00%     80.56% # Class of executed instruction
system.cpu0.op_class::SimdShift                   186      0.00%     80.56% # Class of executed instruction
system.cpu0.op_class::SimdShiftAcc                  0      0.00%     80.56% # Class of executed instruction
system.cpu0.op_class::SimdDiv                       0      0.00%     80.56% # Class of executed instruction
system.cpu0.op_class::SimdSqrt                      0      0.00%     80.56% # Class of executed instruction
system.cpu0.op_class::SimdFloatAdd                  0      0.00%     80.56% # Class of executed instruction
system.cpu0.op_class::SimdFloatAlu                  0      0.00%     80.56% # Class of executed instruction
system.cpu0.op_class::SimdFloatCmp                  0      0.00%     80.56% # Class of executed instruction
system.cpu0.op_class::SimdFloatCvt                  0      0.00%     80.56% # Class of executed instruction
system.cpu0.op_class::SimdFloatDiv                  0      0.00%     80.56% # Class of executed instruction
system.cpu0.op_class::SimdFloatMisc                 0      0.00%     80.56% # Class of executed instruction
system.cpu0.op_class::SimdFloatMult                 0      0.00%     80.56% # Class of executed instruction
system.cpu0.op_class::SimdFloatMultAcc              0      0.00%     80.56% # Class of executed instruction
system.cpu0.op_class::SimdFloatSqrt                 0      0.00%     80.56% # Class of executed instruction
system.cpu0.op_class::SimdReduceAdd                 0      0.00%     80.56% # Class of executed instruction
system.cpu0.op_class::SimdReduceAlu                 0      0.00%     80.56% # Class of executed instruction
system.cpu0.op_class::SimdReduceCmp                 0      0.00%     80.56% # Class of executed instruction
system.cpu0.op_class::SimdFloatReduceAdd            0      0.00%     80.56% # Class of executed instruction
system.cpu0.op_class::SimdFloatReduceCmp            0      0.00%     80.56% # Class of executed instruction
system.cpu0.op_class::SimdAes                       0      0.00%     80.56% # Class of executed instruction
system.cpu0.op_class::SimdAesMix                    0      0.00%     80.56% # Class of executed instruction
system.cpu0.op_class::SimdSha1Hash                  0      0.00%     80.56% # Class of executed instruction
system.cpu0.op_class::SimdSha1Hash2                 0      0.00%     80.56% # Class of executed instruction
system.cpu0.op_class::SimdSha256Hash                0      0.00%     80.56% # Class of executed instruction
system.cpu0.op_class::SimdSha256Hash2               0      0.00%     80.56% # Class of executed instruction
system.cpu0.op_class::SimdShaSigma2                 0      0.00%     80.56% # Class of executed instruction
system.cpu0.op_class::SimdShaSigma3                 0      0.00%     80.56% # Class of executed instruction
system.cpu0.op_class::SimdPredAlu                   0      0.00%     80.56% # Class of executed instruction
system.cpu0.op_class::MemRead                10588866     11.34%     91.89% # Class of executed instruction
system.cpu0.op_class::MemWrite                7084090      7.58%     99.48% # Class of executed instruction
system.cpu0.op_class::FloatMemRead             299098      0.32%     99.80% # Class of executed instruction
system.cpu0.op_class::FloatMemWrite            189265      0.20%    100.00% # Class of executed instruction
system.cpu0.op_class::IprAccess                     0      0.00%    100.00% # Class of executed instruction
system.cpu0.op_class::InstPrefetch                  0      0.00%    100.00% # Class of executed instruction
system.cpu0.op_class::total                  93403858                       # Class of executed instruction
system.cpu0.pwrStateResidencyTicks::ON   181459466000                       # Cumulative time (in ticks) in various power states
system.cpu0.workload.numSyscalls                   56                       # Number of system calls
system.cpu1.Branches                         11268111                       # Number of branches fetched
system.cpu1.committedInsts                   49984671                       # Number of instructions committed
system.cpu1.committedOps                     93387474                       # Number of ops (including micro ops) committed
system.cpu1.dcache.ReadReq_accesses::.cpu1.data     10891801                       # number of ReadReq accesses(hits+misses)
system.cpu1.dcache.ReadReq_accesses::total     10891801                       # number of ReadReq accesses(hits+misses)
system.cpu1.dcache.ReadReq_avg_miss_latency::.cpu1.data 104933.425224                       # average ReadReq miss latency
system.cpu1.dcache.ReadReq_avg_miss_latency::total 104933.425224                       # average ReadReq miss latency
system.cpu1.dcache.ReadReq_avg_mshr_miss_latency::.cpu1.data 102933.425224                       # average ReadReq mshr miss latency
system.cpu1.dcache.ReadReq_avg_mshr_miss_latency::total 102933.425224                       # average ReadReq mshr miss latency
system.cpu1.dcache.ReadReq_hits::.cpu1.data     10877291                       # number of ReadReq hits
system.cpu1.dcache.ReadReq_hits::total       10877291                       # number of ReadReq hits
system.cpu1.dcache.ReadReq_miss_latency::.cpu1.data   1522584000                       # number of ReadReq miss cycles
system.cpu1.dcache.ReadReq_miss_latency::total   1522584000                       # number of ReadReq miss cycles
system.cpu1.dcache.ReadReq_miss_rate::.cpu1.data     0.001332                       # miss rate for ReadReq accesses
system.cpu1.dcache.ReadReq_miss_rate::total     0.001332                       # miss rate for ReadReq accesses
system.cpu1.dcache.ReadReq_misses::.cpu1.data        14510                       # number of ReadReq misses
system.cpu1.dcache.ReadReq_misses::total        14510                       # number of ReadReq misses
system.cpu1.dcache.ReadReq_mshr_miss_latency::.cpu1.data   1493564000                       # number of ReadReq MSHR miss cycles
system.cpu1.dcache.ReadReq_mshr_miss_latency::total   1493564000                       # number of ReadReq MSHR miss cycles
system.cpu1.dcache.ReadReq_mshr_miss_rate::.cpu1.data     0.001332                       # mshr miss rate for ReadReq accesses
system.cpu1.dcache.ReadReq_mshr_miss_rate::total     0.001332                       # mshr miss rate for ReadReq accesses
system.cpu1.dcache.ReadReq_mshr_misses::.cpu1.data        14510                       # number of ReadReq MSHR misses
system.cpu1.dcache.ReadReq_mshr_misses::total        14510                       # number of ReadReq MSHR misses
system.cpu1.dcache.WriteReq_accesses::.cpu1.data      7272116                       # number of WriteReq accesses(hits+misses)
system.cpu1.dcache.WriteReq_accesses::total      7272116                       # number of WriteReq accesses(hits+misses)
system.cpu1.dcache.WriteReq_avg_miss_latency::.cpu1.data 60449.313378                       # average WriteReq miss latency
system.cpu1.dcache.WriteReq_avg_miss_latency::total 60449.313378                       # average WriteReq miss latency
system.cpu1.dcache.WriteReq_avg_mshr_miss_latency::.cpu1.data 58449.313378                       # average WriteReq mshr miss latency
system.cpu1.dcache.WriteReq_avg_mshr_miss_latency::total 58449.313378                       # average WriteReq mshr miss latency
system.cpu1.dcache.WriteReq_hits::.cpu1.data      7220268                       # number of WriteReq hits
system.cpu1.dcache.WriteReq_hits::total       7220268                       # number of WriteReq hits
system.cpu1.dcache.WriteReq_miss_latency::.cpu1.data   3134176000                       # number of WriteReq miss cycles
system.cpu1.dcache.WriteReq_miss_latency::total   3134176000                       # number of WriteReq miss cycles
system.cpu1.dcache.WriteReq_miss_rate::.cpu1.data     0.007130                       # miss rate for WriteReq accesses
system.cpu1.dcache.WriteReq_miss_rate::total     0.007130                       # miss rate for WriteReq accesses
system.cpu1.dcache.WriteReq_misses::.cpu1.data        51848                       # number of WriteReq misses
system.cpu1.dcache.WriteReq_misses::total        51848                       # number of WriteReq misses
system.cpu1.dcache.WriteReq_mshr_miss_latency::.cpu1.data   3030480000                       # number of WriteReq MSHR miss cycles
system.cpu1.dcache.WriteReq_mshr_miss_latency::total   3030480000                       # number of WriteReq MSHR miss cycles
system.cpu1.dcache.WriteReq_mshr_miss_rate::.cpu1.data     0.007130                       # mshr miss rate for WriteReq accesses
system.cpu1.dcache.WriteReq_mshr_miss_rate::total     0.007130                       # mshr miss rate for WriteReq accesses
system.cpu1.dcache.WriteReq_mshr_misses::.cpu1.data        51848                       # number of WriteReq MSHR misses
system.cpu1.dcache.WriteReq_mshr_misses::total        51848                       # number of WriteReq MSHR misses
system.cpu1.dcache.avg_blocked_cycles::no_mshrs          nan                       # average number of cycles each access was blocked
system.cpu1.dcache.avg_blocked_cycles::no_targets          nan                       # average number of cycles each access was blocked
system.cpu1.dcache.blocked::no_mshrs                0                       # number of cycles access was blocked
system.cpu1.dcache.blocked::no_targets              0                       # number of cycles access was blocked
system.cpu1.dcache.blocked_cycles::no_mshrs            0                       # number of cycles access was blocked
system.cpu1.dcache.blocked_cycles::no_targets            0                       # number of cycles access was blocked
system.cpu1.dcache.demand_accesses::.cpu1.data     18163917                       # number of demand (read+write) accesses
system.cpu1.dcache.demand_accesses::total     18163917                       # number of demand (read+write) accesses
system.cpu1.dcache.demand_avg_miss_latency::.cpu1.data 70176.316345                       # average overall miss latency
system.cpu1.dcache.demand_avg_miss_latency::total 70176.316345                       # average overall miss latency
system.cpu1.dcache.demand_avg_mshr_miss_latency::.cpu1.data 68176.316345                       # average overall mshr miss latency
system.cpu1.dcache.demand_avg_mshr_miss_latency::total 68176.316345                       # average overall mshr miss latency
system.cpu1.dcache.demand_hits::.cpu1.data     18097559                       # number of demand (read+write) hits
system.cpu1.dcache.demand_hits::total        18097559                       # number of demand (read+write) hits
system.cpu1.dcache.demand_miss_latency::.cpu1.data   4656760000                       # number of demand (read+write) miss cycles
system.cpu1.dcache.demand_miss_latency::total   4656760000                       # number of demand (read+write) miss cycles
system.cpu1.dcache.demand_miss_rate::.cpu1.data     0.003653                       # miss rate for demand accesses
system.cpu1.dcache.demand_miss_rate::total     0.003653                       # miss rate for demand accesses
system.cpu1.dcache.demand_misses::.cpu1.data        66358                       # number of demand (read+write) misses
system.cpu1.dcache.demand_misses::total         66358                       # number of demand (read+write) misses
system.cpu1.dcache.demand_mshr_miss_latency::.cpu1.data   4524044000                       # number of demand (read+write) MSHR miss cycles
system.cpu1.dcache.demand_mshr_miss_latency::total   4524044000                       # number of demand (read+write) MSHR miss cycles
system.cpu1.dcache.demand_mshr_miss_rate::.cpu1.data     0.003653                       # mshr miss rate for demand accesses
system.cpu1.dcache.demand_mshr_miss_rate::total     0.003653                       # mshr miss rate for demand accesses
system.cpu1.dcache.demand_mshr_misses::.cpu1.data        66358                       # number of demand (read+write) MSHR misses
system.cpu1.dcache.demand_mshr_misses::total        66358                       # number of demand (read+write) MSHR misses
system.cpu1.dcache.overall_accesses::.cpu1.data     18163917                       # number of overall (read+write) accesses
system.cpu1.dcache.overall_accesses::total     18163917                       # number of overall (read+write) accesses
system.cpu1.dcache.overall_avg_miss_latency::.cpu1.data 70176.316345                       # average overall miss latency
system.cpu1.dcache.overall_avg_miss_latency::total 70176.316345                       # average overall miss latency
system.cpu1.dcache.overall_avg_mshr_miss_latency::.cpu1.data 68176.316345                       # average overall mshr miss latency
system.cpu1.dcache.overall_avg_mshr_miss_latency::total 68176.316345                       # average overall mshr miss latency
system.cpu1.dcache.overall_hits::.cpu1.data     18097559                       # number of overall hits
system.cpu1.dcache.overall_hits::total       18097559                       # number of overall hits
system.cpu1.dcache.overall_miss_latency::.cpu1.data   4656760000                       # number of overall miss cycles
system.cpu1.dcache.overall_miss_latency::total   4656760000                       # number of overall miss cycles
system.cpu1.dcache.overall_miss_rate::.cpu1.data     0.003653                       # miss rate for overall accesses
system.cpu1.dcache.overall_miss_rate::total     0.003653                       # miss rate for overall accesses
system.cpu1.dcache.overall_misses::.cpu1.data        66358                       # number of overall misses
system.cpu1.dcache.overall_misses::total        66358                       # number of overall misses
system.cpu1.dcache.overall_mshr_miss_latency::.cpu1.data   4524044000                       # number of overall MSHR miss cycles
system.cpu1.dcache.overall_mshr_miss_latency::total   4524044000                       # number of overall MSHR miss cycles
system.cpu1.dcache.overall_mshr_miss_rate::.cpu1.data     0.003653                       # mshr miss rate for overall accesses
system.cpu1.dcache.overall_mshr_miss_rate::total     0.003653                       # mshr miss rate for overall accesses
system.cpu1.dcache.overall_mshr_misses::.cpu1.data        66358                       # number of overall MSHR misses
system.cpu1.dcache.overall_mshr_misses::total        66358                       # number of overall MSHR misses
system.cpu1.dcache.pwrStateResidencyTicks::UNDEFINED 181459466000                       # Cumulative time (in ticks) in various power states
system.cpu1.dcache.replacements                 65334                       # number of replacements
system.cpu1.dcache.tags.age_task_id_blocks_1024::0            1                       # Occupied blocks per task id
system.cpu1.dcache.tags.age_task_id_blocks_1024::1           19                       # Occupied blocks per task id
system.cpu1.dcache.tags.age_task_id_blocks_1024::2          170                       # Occupied blocks per task id
system.cpu1.dcache.tags.age_task_id_blocks_1024::3          767                       # Occupied blocks per task id
system.cpu1.dcache.tags.age_task_id_blocks_1024::4           67                       # Occupied blocks per task id
system.cpu1.dcache.tags.avg_refs           273.726107                       # Average number of references to valid blocks.
system.cpu1.dcache.tags.data_accesses        36394192                       # Number of data accesses
system.cpu1.dcache.tags.occ_blocks::.cpu1.data  1020.617176                       # Average occupied blocks per requestor
system.cpu1.dcache.tags.occ_percent::.cpu1.data     0.996696                       # Average percentage of cache occupancy
system.cpu1.dcache.tags.occ_percent::total     0.996696                       # Average percentage of cache occupancy
system.cpu1.dcache.tags.occ_task_id_blocks::1024         1024                       # Occupied blocks per task id
system.cpu1.dcache.tags.occ_task_id_percent::1024            1                       # Percentage of cache occupancy per task id
system.cpu1.dcache.tags.pwrStateResidencyTicks::UNDEFINED 181459466000                       # Cumulative time (in ticks) in various power states
system.cpu1.dcache.tags.sampled_refs            66358                       # Sample count of references to valid blocks.
system.cpu1.dcache.tags.tag_accesses         36394192                       # Number of tag accesses
system.cpu1.dcache.tags.tagsinuse         1020.617176                       # Cycle average of tags in use
system.cpu1.dcache.tags.total_refs           18163917                       # Total number of references to valid blocks.
system.cpu1.dcache.tags.warmup_cycle           283000                       # Cycle when the warmup percentage was hit.
system.cpu1.dcache.writebacks::.writebacks        61457                       # number of writebacks
system.cpu1.dcache.writebacks::total            61457                       # number of writebacks
system.cpu1.dtb.rdAccesses                   10891801                       # TLB accesses on read requests
system.cpu1.dtb.rdMisses                         9244                       # TLB misses on read requests
system.cpu1.dtb.walker.pwrStateResidencyTicks::UNDEFINED 181459466000                       # Cumulative time (in ticks) in various power states
system.cpu1.dtb.wrAccesses                    7272116                       # TLB accesses on write requests
system.cpu1.dtb.wrMisses                          897                       # TLB misses on write requests
system.cpu1.icache.ReadReq_accesses::.cpu1.inst     67543549                       # number of ReadReq accesses(hits+misses)
system.cpu1.icache.ReadReq_accesses::total     67543549                       # number of ReadReq accesses(hits+misses)
system.cpu1.icache.ReadReq_avg_miss_latency::.cpu1.inst 26490.992329                       # average ReadReq miss latency
system.cpu1.icache.ReadReq_avg_miss_latency::total 26490.992329                       # average ReadReq miss latency
system.cpu1.icache.ReadReq_avg_mshr_miss_latency::.cpu1.inst 24490.992329                       # average ReadReq mshr miss latency
system.cpu1.icache.ReadReq_avg_mshr_miss_latency::total 24490.992329                       # average ReadReq mshr miss latency
system.cpu1.icache.ReadReq_hits::.cpu1.inst     67317908                       # number of ReadReq hits
system.cpu1.icache.ReadReq_hits::total       67317908                       # number of ReadReq hits
system.cpu1.icache.ReadReq_miss_latency::.cpu1.inst   5977454000                       # number of ReadReq miss cycles
system.cpu1.icache.ReadReq_miss_latency::total   5977454000                       # number of ReadReq miss cycles
system.cpu1.icache.ReadReq_miss_rate::.cpu1.inst     0.003341                       # miss rate for ReadReq accesses
system.cpu1.icache.ReadReq_miss_rate::total     0.003341                       # miss rate for ReadReq accesses
system.cpu1.icache.ReadReq_misses::.cpu1.inst       225641                       # number of ReadReq misses
system.cpu1.icache.ReadReq_misses::total       225641                       # number of ReadReq misses
system.cpu1.icache.ReadReq_mshr_miss_latency::.cpu1.inst   5526172000                       # number of ReadReq MSHR miss cycles
system.cpu1.icache.ReadReq_mshr_miss_latency::total   5526172000                       # number of ReadReq MSHR miss cycles
system.cpu1.icache.ReadReq_mshr_miss_rate::.cpu1.inst     0.003341                       # mshr miss rate for ReadReq accesses
system.cpu1.icache.ReadReq_mshr_miss_rate::total     0.003341                       # mshr miss rate for ReadReq accesses
system.cpu1.icache.ReadReq_mshr_misses::.cpu1.inst       225641                       # number of ReadReq MSHR misses
system.cpu1.icache.ReadReq_mshr_misses::total       225641                       # number of ReadReq MSHR misses
system.cpu1.icache.avg_blocked_cycles::no_mshrs          nan                       # average number of cycles each access was blocked
system.cpu1.icache.avg_blocked_cycles::no_targets          nan                       # average number of cycles each access was blocked
system.cpu1.icache.blocked::no_mshrs                0                       # number of cycles access was blocked
system.cpu1.icache.blocked::no_targets              0                       # number of cycles access was blocked
system.cpu1.icache.blocked_cycles::no_mshrs            0                       # number of cycles access was blocked
system.cpu1.icache.blocked_cycles::no_targets            0                       # number of cycles access was blocked
system.cpu1.icache.demand_accesses::.cpu1.inst     67543549                       # number of demand (read+write) accesses
system.cpu1.icache.demand_accesses::total     67543549                       # number of demand (read+write) accesses
system.cpu1.icache.demand_avg_miss_latency::.cpu1.inst 26490.992329                       # average overall miss latency
system.cpu1.icache.demand_avg_miss_latency::total 26490.992329                       # average overall miss latency
system.cpu1.icache.demand_avg_mshr_miss_latency::.cpu1.inst 24490.992329                       # average overall mshr miss latency
system.cpu1.icache.demand_avg_mshr_miss_latency::total 24490.992329                       # average overall mshr miss latency
system.cpu1.icache.demand_hits::.cpu1.inst     67317908                       # number of demand (read+write) hits
system.cpu1.icache.demand_hits::total        67317908                       # number of demand (read+write) hits
system.cpu1.icache.demand_miss_latency::.cpu1.inst   5977454000                       # number of demand (read+write) miss cycles
system.cpu1.icache.demand_miss_latency::total   5977454000                       # number of demand (read+write) miss cycles
system.cpu1.icache.demand_miss_rate::.cpu1.inst     0.003341                       # miss rate for demand accesses
system.cpu1.icache.demand_miss_rate::total     0.003341                       # miss rate for demand accesses
system.cpu1.icache.demand_misses::.cpu1.inst       225641                       # number of demand (read+write) misses
system.cpu1.icache.demand_misses::total        225641                       # number of demand (read+write) misses
system.cpu1.icache.demand_mshr_miss_latency::.cpu1.inst   5526172000                       # number of demand (read+write) MSHR miss cycles
system.cpu1.icache.demand_mshr_miss_latency::total   5526172000                       # number of demand (read+write) MSHR miss cycles
system.cpu1.icache.demand_mshr_miss_rate::.cpu1.inst     0.003341                       # mshr miss rate for demand accesses
system.cpu1.icache.demand_mshr_miss_rate::total     0.003341                       # mshr miss rate for demand accesses
system.cpu1.icache.demand_mshr_misses::.cpu1.inst       225641                       # number of demand (read+write) MSHR misses
system.cpu1.icache.demand_mshr_misses::total       225641                       # number of demand (read+write) MSHR misses
system.cpu1.icache.overall_accesses::.cpu1.inst     67543549                       # number of overall (read+write) accesses
system.cpu1.icache.overall_accesses::total     67543549                       # number of overall (read+write) accesses
system.cpu1.icache.overall_avg_miss_latency::.cpu1.inst 26490.992329                       # average overall miss latency
system.cpu1.icache.overall_avg_miss_latency::total 26490.992329                       # average overall miss latency
system.cpu1.icache.overall_avg_mshr_miss_latency::.cpu1.inst 24490.992329                       # average overall mshr miss latency
system.cpu1.icache.overall_avg_mshr_miss_latency::total 24490.992329                       # average overall mshr miss latency
system.cpu1.icache.overall_hits::.cpu1.inst     67317908                       # number of overall hits
system.cpu1.icache.overall_hits::total       67317908                       # number of overall hits
system.cpu1.icache.overall_miss_latency::.cpu1.inst   5977454000                       # number of overall miss cycles
system.cpu1.icache.overall_miss_latency::total   5977454000                       # number of overall miss cycles
system.cpu1.icache.overall_miss_rate::.cpu1.inst     0.003341                       # miss rate for overall accesses
system.cpu1.icache.overall_miss_rate::total     0.003341                       # miss rate for overall accesses
system.cpu1.icache.overall_misses::.cpu1.inst       225641                       # number of overall misses
system.cpu1.icache.overall_misses::total       225641                       # number of overall misses
system.cpu1.icache.overall_mshr_miss_latency::.cpu1.inst   5526172000                       # number of overall MSHR miss cycles
system.cpu1.icache.overall_mshr_miss_latency::total   5526172000                       # number of overall MSHR miss cycles
system.cpu1.icache.overall_mshr_miss_rate::.cpu1.inst     0.003341                       # mshr miss rate for overall accesses
system.cpu1.icache.overall_mshr_miss_rate::total     0.003341                       # mshr miss rate for overall accesses
system.cpu1.icache.overall_mshr_misses::.cpu1.inst       225641                       # number of overall MSHR misses
system.cpu1.icache.overall_mshr_misses::total       225641                       # number of overall MSHR misses
system.cpu1.icache.pwrStateResidencyTicks::UNDEFINED 181459466000                       # Cumulative time (in ticks) in various power states
system.cpu1.icache.replacements                225388                       # number of replacements
system.cpu1.icache.tags.age_task_id_blocks_1024::0            6                       # Occupied blocks per task id
system.cpu1.icache.tags.age_task_id_blocks_1024::3           10                       # Occupied blocks per task id
system.cpu1.icache.tags.age_task_id_blocks_1024::4          237                       # Occupied blocks per task id
system.cpu1.icache.tags.avg_refs           299.340763                       # Average number of references to valid blocks.
system.cpu1.icache.tags.data_accesses       135312739                       # Number of data accesses
system.cpu1.icache.tags.occ_blocks::.cpu1.inst   252.708149                       # Average occupied blocks per requestor
system.cpu1.icache.tags.occ_percent::.cpu1.inst     0.987141                       # Average percentage of cache occupancy
system.cpu1.icache.tags.occ_percent::total     0.987141                       # Average percentage of cache occupancy
system.cpu1.icache.tags.occ_task_id_blocks::1024          253                       # Occupied blocks per task id
system.cpu1.icache.tags.occ_task_id_percent::1024     0.988281                       # Percentage of cache occupancy per task id
system.cpu1.icache.tags.pwrStateResidencyTicks::UNDEFINED 181459466000                       # Cumulative time (in ticks) in various power states
system.cpu1.icache.tags.sampled_refs           225641                       # Sample count of references to valid blocks.
system.cpu1.icache.tags.tag_accesses        135312739                       # Number of tag accesses
system.cpu1.icache.tags.tagsinuse          252.708149                       # Cycle average of tags in use
system.cpu1.icache.tags.total_refs           67543549                       # Total number of references to valid blocks.
system.cpu1.icache.tags.warmup_cycle           156000                       # Cycle when the warmup percentage was hit.
system.cpu1.idle_fraction                           0                       # Percentage of idle cycles
system.cpu1.interrupts.clk_domain.clock         16000                       # Clock period in ticks
system.cpu1.interrupts.pwrStateResidencyTicks::UNDEFINED 181459466000                       # Cumulative time (in ticks) in various power states
system.cpu1.itb.rdAccesses                          0                       # TLB accesses on read requests
system.cpu1.itb.rdMisses                            0                       # TLB misses on read requests
system.cpu1.itb.walker.pwrStateResidencyTicks::UNDEFINED 181459466000                       # Cumulative time (in ticks) in various power states
system.cpu1.itb.wrAccesses                   67543549                       # TLB accesses on write requests
system.cpu1.itb.wrMisses                          127                       # TLB misses on write requests
system.cpu1.not_idle_fraction                       1                       # Percentage of non-idle cycles
system.cpu1.numCycles                       181459465                       # number of cpu cycles simulated
system.cpu1.numWorkItemsCompleted                   0                       # number of work items this cpu completed
system.cpu1.numWorkItemsStarted                     0                       # number of work items this cpu started
system.cpu1.num_busy_cycles                 181459465                       # Number of busy cycles
system.cpu1.num_cc_register_reads            57981458                       # number of times the CC registers were read
system.cpu1.num_cc_register_writes           29702055                       # number of times the CC registers were written
system.cpu1.num_conditional_control_insts      9154529                       # number of instructions that are conditional controls
system.cpu1.num_fp_alu_accesses               1222083                       # Number of float alu accesses
system.cpu1.num_fp_insts                      1222083                       # number of float instructions
system.cpu1.num_fp_register_reads             1373430                       # number of times the floating registers were read
system.cpu1.num_fp_register_writes             922538                       # number of times the floating registers were written
system.cpu1.num_func_calls                     950536                       # number of times a function call or return occured
system.cpu1.num_idle_cycles                         0                       # Number of idle cycles
system.cpu1.num_int_alu_accesses             92642532                       # Number of integer alu accesses
system.cpu1.num_int_insts                    92642532                       # number of integer instructions
system.cpu1.num_int_register_reads          179324593                       # number of times the integer registers were read
system.cpu1.num_int_register_writes          74026610                       # number of times the integer registers were written
system.cpu1.num_load_insts                   10886124                       # Number of load instructions
system.cpu1.num_mem_refs                     18158237                       # number of memory refs
system.cpu1.num_store_insts                   7272113                       # Number of store instructions
system.cpu1.num_vec_alu_accesses                    0                       # Number of vector alu accesses
system.cpu1.num_vec_insts                           0                       # number of vector instructions
system.cpu1.num_vec_register_reads                  0                       # number of times the vector registers were read
system.cpu1.num_vec_register_writes                 0                       # number of times the vector registers were written
system.cpu1.op_class::No_OpClass               166600      0.18%      0.18% # Class of executed instruction
system.cpu1.op_class::IntAlu                 74155330     79.41%     79.58% # Class of executed instruction
system.cpu1.op_class::IntMult                  223313      0.24%     79.82% # Class of executed instruction
system.cpu1.op_class::IntDiv                       21      0.00%     79.82% # Class of executed instruction
system.cpu1.op_class::FloatAdd                 117258      0.13%     79.95% # Class of executed instruction
system.cpu1.op_class::FloatCmp                      0      0.00%     79.95% # Class of executed instruction
system.cpu1.op_class::FloatCvt                      0      0.00%     79.95% # Class of executed instruction
system.cpu1.op_class::FloatMult                     0      0.00%     79.95% # Class of executed instruction
system.cpu1.op_class::FloatMultAcc                  0      0.00%     79.95% # Class of executed instruction
system.cpu1.op_class::FloatDiv                      0      0.00%     79.95% # Class of executed instruction
system.cpu1.op_class::FloatMisc                     0      0.00%     79.95% # Class of executed instruction
system.cpu1.op_class::FloatSqrt                     0      0.00%     79.95% # Class of executed instruction
system.cpu1.op_class::SimdAdd                     374      0.00%     79.95% # Class of executed instruction
system.cpu1.op_class::SimdAddAcc                    0      0.00%     79.95% # Class of executed instruction
system.cpu1.op_class::SimdAlu                     100      0.00%     79.95% # Class of executed instruction
system.cpu1.op_class::SimdCmp                       0      0.00%     79.95% # Class of executed instruction
system.cpu1.op_class::SimdCvt                  110372      0.12%     80.07% # Class of executed instruction
system.cpu1.op_class::SimdMisc                 455683      0.49%     80.56% # Class of executed instruction
system.cpu1.op_class::SimdMult                      0      0.00%     80.56% # Class of executed instruction
system.cpu1.op_class::SimdMultAcc                   0      0.00%     80.56% # Class of executed instruction
system.cpu1.op_class::SimdShift                   186      0.00%     80.56% # Class of executed instruction
system.cpu1.op_class::SimdShiftAcc                  0      0.00%     80.56% # Class of executed instruction
system.cpu1.op_class::SimdDiv                       0      0.00%     80.56% # Class of executed instruction
system.cpu1.op_class::SimdSqrt                      0      0.00%     80.56% # Class of executed instruction
system.cpu1.op_class::SimdFloatAdd                  0      0.00%     80.56% # Class of executed instruction
system.cpu1.op_class::SimdFloatAlu                  0      0.00%     80.56% # Class of executed instruction
system.cpu1.op_class::SimdFloatCmp                  0      0.00%     80.56% # Class of executed instruction
system.cpu1.op_class::SimdFloatCvt                  0      0.00%     80.56% # Class of executed instruction
system.cpu1.op_class::SimdFloatDiv                  0      0.00%     80.56% # Class of executed instruction
system.cpu1.op_class::SimdFloatMisc                 0      0.00%     80.56% # Class of executed instruction
system.cpu1.op_class::SimdFloatMult                 0      0.00%     80.56% # Class of executed instruction
system.cpu1.op_class::SimdFloatMultAcc              0      0.00%     80.56% # Class of executed instruction
system.cpu1.op_class::SimdFloatSqrt                 0      0.00%     80.56% # Class of executed instruction
system.cpu1.op_class::SimdReduceAdd                 0      0.00%     80.56% # Class of executed instruction
system.cpu1.op_class::SimdReduceAlu                 0      0.00%     80.56% # Class of executed instruction
system.cpu1.op_class::SimdReduceCmp                 0      0.00%     80.56% # Class of executed instruction
system.cpu1.op_class::SimdFloatReduceAdd            0      0.00%     80.56% # Class of executed instruction
system.cpu1.op_class::SimdFloatReduceCmp            0      0.00%     80.56% # Class of executed instruction
system.cpu1.op_class::SimdAes                       0      0.00%     80.56% # Class of executed instruction
system.cpu1.op_class::SimdAesMix                    0      0.00%     80.56% # Class of executed instruction
system.cpu1.op_class::SimdSha1Hash                  0      0.00%     80.56% # Class of executed instruction
system.cpu1.op_class::SimdSha1Hash2                 0      0.00%     80.56% # Class of executed instruction
system.cpu1.op_class::SimdSha256Hash                0      0.00%     80.56% # Class of executed instruction
system.cpu1.op_class::SimdSha256Hash2               0      0.00%     80.56% # Class of executed instruction
system.cpu1.op_class::SimdShaSigma2                 0      0.00%     80.56% # Class of executed instruction
system.cpu1.op_class::SimdShaSigma3                 0      0.00%     80.56% # Class of executed instruction
system.cpu1.op_class::SimdPredAlu                   0      0.00%     80.56% # Class of executed instruction
system.cpu1.op_class::MemRead                10587074     11.34%     91.89% # Class of executed instruction
system.cpu1.op_class::MemWrite                7082880      7.58%     99.48% # Class of executed instruction
system.cpu1.op_class::FloatMemRead             299050      0.32%     99.80% # Class of executed instruction
system.cpu1.op_class::FloatMemWrite            189233      0.20%    100.00% # Class of executed instruction
system.cpu1.op_class::IprAccess                     0      0.00%    100.00% # Class of executed instruction
system.cpu1.op_class::InstPrefetch                  0      0.00%    100.00% # Class of executed instruction
system.cpu1.op_class::total                  93387474                       # Class of executed instruction
system.cpu1.pwrStateResidencyTicks::ON   181459466000                       # Cumulative time (in ticks) in various power states
system.cpu1.workload.numSyscalls                   56                       # Number of system calls
system.cpu2.Branches                         11271693                       # Number of branches fetched
system.cpu2.committedInsts                   50000000                       # Number of instructions committed
system.cpu2.committedOps                     93416416                       # Number of ops (including micro ops) committed
system.cpu2.dcache.ReadReq_accesses::.cpu2.data     10895037                       # number of ReadReq accesses(hits+misses)
system.cpu2.dcache.ReadReq_accesses::total     10895037                       # number of ReadReq accesses(hits+misses)
system.cpu2.dcache.ReadReq_avg_miss_latency::.cpu2.data 108934.812659                       # average ReadReq miss latency
system.cpu2.dcache.ReadReq_avg_miss_latency::total 108934.812659                       # average ReadReq miss latency
system.cpu2.dcache.ReadReq_avg_mshr_miss_latency::.cpu2.data 106934.812659                       # average ReadReq mshr miss latency
system.cpu2.dcache.ReadReq_avg_mshr_miss_latency::total 106934.812659                       # average ReadReq mshr miss latency
system.cpu2.dcache.ReadReq_hits::.cpu2.data     10881292                       # number of ReadReq hits
system.cpu2.dcache.ReadReq_hits::total       10881292                       # number of ReadReq hits
system.cpu2.dcache.ReadReq_miss_latency::.cpu2.data   1497309000                       # number of ReadReq miss cycles
system.cpu2.dcache.ReadReq_miss_latency::total   1497309000                       # number of ReadReq miss cycles
system.cpu2.dcache.ReadReq_miss_rate::.cpu2.data     0.001262                       # miss rate for ReadReq accesses
system.cpu2.dcache.ReadReq_miss_rate::total     0.001262                       # miss rate for ReadReq accesses
system.cpu2.dcache.ReadReq_misses::.cpu2.data        13745                       # number of ReadReq misses
system.cpu2.dcache.ReadReq_misses::total        13745                       # number of ReadReq misses
system.cpu2.dcache.ReadReq_mshr_miss_latency::.cpu2.data   1469819000                       # number of ReadReq MSHR miss cycles
system.cpu2.dcache.ReadReq_mshr_miss_latency::total   1469819000                       # number of ReadReq MSHR miss cycles
system.cpu2.dcache.ReadReq_mshr_miss_rate::.cpu2.data     0.001262                       # mshr miss rate for ReadReq accesses
system.cpu2.dcache.ReadReq_mshr_miss_rate::total     0.001262                       # mshr miss rate for ReadReq accesses
system.cpu2.dcache.ReadReq_mshr_misses::.cpu2.data        13745                       # number of ReadReq MSHR misses
system.cpu2.dcache.ReadReq_mshr_misses::total        13745                       # number of ReadReq MSHR misses
system.cpu2.dcache.WriteReq_accesses::.cpu2.data      7274294                       # number of WriteReq accesses(hits+misses)
system.cpu2.dcache.WriteReq_accesses::total      7274294                       # number of WriteReq accesses(hits+misses)
system.cpu2.dcache.WriteReq_avg_miss_latency::.cpu2.data 59916.185696                       # average WriteReq miss latency
system.cpu2.dcache.WriteReq_avg_miss_latency::total 59916.185696                       # average WriteReq miss latency
system.cpu2.dcache.WriteReq_avg_mshr_miss_latency::.cpu2.data 57916.185696                       # average WriteReq mshr miss latency
system.cpu2.dcache.WriteReq_avg_mshr_miss_latency::total 57916.185696                       # average WriteReq mshr miss latency
system.cpu2.dcache.WriteReq_hits::.cpu2.data      7222489                       # number of WriteReq hits
system.cpu2.dcache.WriteReq_hits::total       7222489                       # number of WriteReq hits
system.cpu2.dcache.WriteReq_miss_latency::.cpu2.data   3103958000                       # number of WriteReq miss cycles
system.cpu2.dcache.WriteReq_miss_latency::total   3103958000                       # number of WriteReq miss cycles
system.cpu2.dcache.WriteReq_miss_rate::.cpu2.data     0.007122                       # miss rate for WriteReq accesses
system.cpu2.dcache.WriteReq_miss_rate::total     0.007122                       # miss rate for WriteReq accesses
system.cpu2.dcache.WriteReq_misses::.cpu2.data        51805                       # number of WriteReq misses
system.cpu2.dcache.WriteReq_misses::total        51805                       # number of WriteReq misses
system.cpu2.dcache.WriteReq_mshr_miss_latency::.cpu2.data   3000348000                       # number of WriteReq MSHR miss cycles
system.cpu2.dcache.WriteReq_mshr_miss_latency::total   3000348000                       # number of WriteReq MSHR miss cycles
system.cpu2.dcache.WriteReq_mshr_miss_rate::.cpu2.data     0.007122                       # mshr miss rate for WriteReq accesses
system.cpu2.dcache.WriteReq_mshr_miss_rate::total     0.007122                       # mshr miss rate for WriteReq accesses
system.cpu2.dcache.WriteReq_mshr_misses::.cpu2.data        51805                       # number of WriteReq MSHR misses
system.cpu2.dcache.WriteReq_mshr_misses::total        51805                       # number of WriteReq MSHR misses
system.cpu2.dcache.avg_blocked_cycles::no_mshrs          nan                       # average number of cycles each access was blocked
system.cpu2.dcache.avg_blocked_cycles::no_targets          nan                       # average number of cycles each access was blocked
system.cpu2.dcache.blocked::no_mshrs                0                       # number of cycles access was blocked
system.cpu2.dcache.blocked::no_targets              0                       # number of cycles access was blocked
system.cpu2.dcache.blocked_cycles::no_mshrs            0                       # number of cycles access was blocked
system.cpu2.dcache.blocked_cycles::no_targets            0                       # number of cycles access was blocked
system.cpu2.dcache.demand_accesses::.cpu2.data     18169331                       # number of demand (read+write) accesses
system.cpu2.dcache.demand_accesses::total     18169331                       # number of demand (read+write) accesses
system.cpu2.dcache.demand_avg_miss_latency::.cpu2.data 70194.767353                       # average overall miss latency
system.cpu2.dcache.demand_avg_miss_latency::total 70194.767353                       # average overall miss latency
system.cpu2.dcache.demand_avg_mshr_miss_latency::.cpu2.data 68194.767353                       # average overall mshr miss latency
system.cpu2.dcache.demand_avg_mshr_miss_latency::total 68194.767353                       # average overall mshr miss latency
system.cpu2.dcache.demand_hits::.cpu2.data     18103781                       # number of demand (read+write) hits
system.cpu2.dcache.demand_hits::total        18103781                       # number of demand (read+write) hits
system.cpu2.dcache.demand_miss_latency::.cpu2.data   4601267000                       # number of demand (read+write) miss cycles
system.cpu2.dcache.demand_miss_latency::total   4601267000                       # number of demand (read+write) miss cycles
system.cpu2.dcache.demand_miss_rate::.cpu2.data     0.003608                       # miss rate for demand accesses
system.cpu2.dcache.demand_miss_rate::total     0.003608                       # miss rate for demand accesses
system.cpu2.dcache.demand_misses::.cpu2.data        65550                       # number of demand (read+write) misses
system.cpu2.dcache.demand_misses::total         65550                       # number of demand (read+write) misses
system.cpu2.dcache.demand_mshr_miss_latency::.cpu2.data   4470167000                       # number of demand (read+write) MSHR miss cycles
system.cpu2.dcache.demand_mshr_miss_latency::total   4470167000                       # number of demand (read+write) MSHR miss cycles
system.cpu2.dcache.demand_mshr_miss_rate::.cpu2.data     0.003608                       # mshr miss rate for demand accesses
system.cpu2.dcache.demand_mshr_miss_rate::total     0.003608                       # mshr miss rate for demand accesses
system.cpu2.dcache.demand_mshr_misses::.cpu2.data        65550                       # number of demand (read+write) MSHR misses
system.cpu2.dcache.demand_mshr_misses::total        65550                       # number of demand (read+write) MSHR misses
system.cpu2.dcache.overall_accesses::.cpu2.data     18169331                       # number of overall (read+write) accesses
system.cpu2.dcache.overall_accesses::total     18169331                       # number of overall (read+write) accesses
system.cpu2.dcache.overall_avg_miss_latency::.cpu2.data 70194.767353                       # average overall miss latency
system.cpu2.dcache.overall_avg_miss_latency::total 70194.767353                       # average overall miss latency
system.cpu2.dcache.overall_avg_mshr_miss_latency::.cpu2.data 68194.767353                       # average overall mshr miss latency
system.cpu2.dcache.overall_avg_mshr_miss_latency::total 68194.767353                       # average overall mshr miss latency
system.cpu2.dcache.overall_hits::.cpu2.data     18103781                       # number of overall hits
system.cpu2.dcache.overall_hits::total       18103781                       # number of overall hits
system.cpu2.dcache.overall_miss_latency::.cpu2.data   4601267000                       # number of overall miss cycles
system.cpu2.dcache.overall_miss_latency::total   4601267000                       # number of overall miss cycles
system.cpu2.dcache.overall_miss_rate::.cpu2.data     0.003608                       # miss rate for overall accesses
system.cpu2.dcache.overall_miss_rate::total     0.003608                       # miss rate for overall accesses
system.cpu2.dcache.overall_misses::.cpu2.data        65550                       # number of overall misses
system.cpu2.dcache.overall_misses::total        65550                       # number of overall misses
system.cpu2.dcache.overall_mshr_miss_latency::.cpu2.data   4470167000                       # number of overall MSHR miss cycles
system.cpu2.dcache.overall_mshr_miss_latency::total   4470167000                       # number of overall MSHR miss cycles
system.cpu2.dcache.overall_mshr_miss_rate::.cpu2.data     0.003608                       # mshr miss rate for overall accesses
system.cpu2.dcache.overall_mshr_miss_rate::total     0.003608                       # mshr miss rate for overall accesses
system.cpu2.dcache.overall_mshr_misses::.cpu2.data        65550                       # number of overall MSHR misses
system.cpu2.dcache.overall_mshr_misses::total        65550                       # number of overall MSHR misses
system.cpu2.dcache.pwrStateResidencyTicks::UNDEFINED 181459466000                       # Cumulative time (in ticks) in various power states
system.cpu2.dcache.replacements                 64526                       # number of replacements
system.cpu2.dcache.tags.age_task_id_blocks_1024::0            2                       # Occupied blocks per task id
system.cpu2.dcache.tags.age_task_id_blocks_1024::1           19                       # Occupied blocks per task id
[...]
system.mem_ctrl.wrPerTurnAround::21               692      1.36%     96.87% # Writes before turning the bus around for reads
system.mem_ctrl.wrPerTurnAround::22               431      0.85%     97.72% # Writes before turning the bus around for reads
system.mem_ctrl.wrPerTurnAround::23               365      0.72%     98.44% # Writes before turning the bus around for reads
system.mem_ctrl.wrPerTurnAround::24               275      0.54%     98.98% # Writes before turning the bus around for reads
system.mem_ctrl.wrPerTurnAround::25               214      0.42%     99.40% # Writes before turning the bus around for reads
system.mem_ctrl.wrPerTurnAround::26               165      0.32%     99.72% # Writes before turning the bus around for reads
system.mem_ctrl.wrPerTurnAround::27                77      0.15%     99.87% # Writes before turning the bus around for reads
system.mem_ctrl.wrPerTurnAround::28                51      0.10%     99.97% # Writes before turning the bus around for reads
system.mem_ctrl.wrPerTurnAround::29                 6      0.01%     99.98% # Writes before turning the bus around for reads
system.mem_ctrl.wrPerTurnAround::30                 2      0.00%     99.99% # Writes before turning the bus around for reads
system.mem_ctrl.wrPerTurnAround::31                 3      0.01%     99.99% # Writes before turning the bus around for reads
system.mem_ctrl.wrPerTurnAround::33                 1      0.00%    100.00% # Writes before turning the bus around for reads
system.mem_ctrl.wrPerTurnAround::34                 1      0.00%    100.00% # Writes before turning the bus around for reads
system.mem_ctrl.wrPerTurnAround::36                 1      0.00%    100.00% # Writes before turning the bus around for reads
system.mem_ctrl.wrPerTurnAround::total          50939                       # Writes before turning the bus around for reads
system.mem_ctrl.wrQLenPdf::0                        1                       # What write queue length does an incoming req see
system.mem_ctrl.wrQLenPdf::1                        1                       # What write queue length does an incoming req see
system.mem_ctrl.wrQLenPdf::2                        1                       # What write queue length does an incoming req see
system.mem_ctrl.wrQLenPdf::3                        1                       # What write queue length does an incoming req see
system.mem_ctrl.wrQLenPdf::4                        1                       # What write queue length does an incoming req see
system.mem_ctrl.wrQLenPdf::5                        1                       # What write queue length does an incoming req see
system.mem_ctrl.wrQLenPdf::6                        1                       # What write queue length does an incoming req see
system.mem_ctrl.wrQLenPdf::7                        1                       # What write queue length does an incoming req see
system.mem_ctrl.wrQLenPdf::8                        1                       # What write queue length does an incoming req see
system.mem_ctrl.wrQLenPdf::9                        1                       # What write queue length does an incoming req see
system.mem_ctrl.wrQLenPdf::10                       1                       # What write queue length does an incoming req see
system.mem_ctrl.wrQLenPdf::11                       1                       # What write queue length does an incoming req see
system.mem_ctrl.wrQLenPdf::12                       1                       # What write queue length does an incoming req see
system.mem_ctrl.wrQLenPdf::13                       1                       # What write queue length does an incoming req see
system.mem_ctrl.wrQLenPdf::14                       1                       # What write queue length does an incoming req see
system.mem_ctrl.wrQLenPdf::15                   34315                       # What write queue length does an incoming req see
system.mem_ctrl.wrQLenPdf::16                   37711                       # What write queue length does an incoming req see
system.mem_ctrl.wrQLenPdf::17                   46635                       # What write queue length does an incoming req see
system.mem_ctrl.wrQLenPdf::18                   48989                       # What write queue length does an incoming req see
system.mem_ctrl.wrQLenPdf::19                   49944                       # What write queue length does an incoming req see
system.mem_ctrl.wrQLenPdf::20                   50676                       # What write queue length does an incoming req see
system.mem_ctrl.wrQLenPdf::21                   51168                       # What write queue length does an incoming req see
system.mem_ctrl.wrQLenPdf::22                   51616                       # What write queue length does an incoming req see
system.mem_ctrl.wrQLenPdf::23                   51918                       # What write queue length does an incoming req see
system.mem_ctrl.wrQLenPdf::24                   52048                       # What write queue length does an incoming req see
system.mem_ctrl.wrQLenPdf::25                   52155                       # What write queue length does an incoming req see
system.mem_ctrl.wrQLenPdf::26                   55790                       # What write queue length does an incoming req see
system.mem_ctrl.wrQLenPdf::27                   53901                       # What write queue length does an incoming req see
system.mem_ctrl.wrQLenPdf::28                   54218                       # What write queue length does an incoming req see
system.mem_ctrl.wrQLenPdf::29                   61096                       # What write queue length does an incoming req see
system.mem_ctrl.wrQLenPdf::30                   52337                       # What write queue length does an incoming req see
system.mem_ctrl.wrQLenPdf::31                   51691                       # What write queue length does an incoming req see
system.mem_ctrl.wrQLenPdf::32                   51646                       # What write queue length does an incoming req see
system.mem_ctrl.wrQLenPdf::33                     532                       # What write queue length does an incoming req see
system.mem_ctrl.wrQLenPdf::34                     121                       # What write queue length does an incoming req see
system.mem_ctrl.wrQLenPdf::35                      64                       # What write queue length does an incoming req see
system.mem_ctrl.wrQLenPdf::36                      49                       # What write queue length does an incoming req see
system.mem_ctrl.wrQLenPdf::37                      24                       # What write queue length does an incoming req see
system.mem_ctrl.wrQLenPdf::38                      15                       # What write queue length does an incoming req see
system.mem_ctrl.wrQLenPdf::39                      14                       # What write queue length does an incoming req see
system.mem_ctrl.wrQLenPdf::40                       4                       # What write queue length does an incoming req see
system.mem_ctrl.wrQLenPdf::41                       3                       # What write queue length does an incoming req see
system.mem_ctrl.wrQLenPdf::42                       1                       # What write queue length does an incoming req see
system.mem_ctrl.wrQLenPdf::43                       0                       # What write queue length does an incoming req see
system.mem_ctrl.wrQLenPdf::44                       0                       # What write queue length does an incoming req see
system.mem_ctrl.wrQLenPdf::45                       0                       # What write queue length does an incoming req see
system.mem_ctrl.wrQLenPdf::46                       0                       # What write queue length does an incoming req see
system.mem_ctrl.wrQLenPdf::47                       0                       # What write queue length does an incoming req see
system.mem_ctrl.wrQLenPdf::48                       0                       # What write queue length does an incoming req see
system.mem_ctrl.wrQLenPdf::49                       0                       # What write queue length does an incoming req see
system.mem_ctrl.wrQLenPdf::50                       0                       # What write queue length does an incoming req see
system.mem_ctrl.wrQLenPdf::51                       0                       # What write queue length does an incoming req see
system.mem_ctrl.wrQLenPdf::52                       0                       # What write queue length does an incoming req see
system.mem_ctrl.wrQLenPdf::53                       0                       # What write queue length does an incoming req see
system.mem_ctrl.wrQLenPdf::54                       0                       # What write queue length does an incoming req see
system.mem_ctrl.wrQLenPdf::55                       0                       # What write queue length does an incoming req see
system.mem_ctrl.wrQLenPdf::56                       0                       # What write queue length does an incoming req see
system.mem_ctrl.wrQLenPdf::57                       0                       # What write queue length does an incoming req see
system.mem_ctrl.wrQLenPdf::58                       0                       # What write queue length does an incoming req see
system.mem_ctrl.wrQLenPdf::59                       0                       # What write queue length does an incoming req see
system.mem_ctrl.wrQLenPdf::60                       0                       # What write queue length does an incoming req see
system.mem_ctrl.wrQLenPdf::61                       0                       # What write queue length does an incoming req see
system.mem_ctrl.wrQLenPdf::62                       0                       # What write queue length does an incoming req see
system.mem_ctrl.wrQLenPdf::63                       0                       # What write queue length does an incoming req see
system.mem_ctrl.writeBursts                    908696                       # Number of DRAM write bursts, including those merged in the write queue
system.mem_ctrl.writePktSize::0                     0                       # Write request sizes (log2)
system.mem_ctrl.writePktSize::1                     0                       # Write request sizes (log2)
system.mem_ctrl.writePktSize::2                     0                       # Write request sizes (log2)
system.mem_ctrl.writePktSize::3                     0                       # Write request sizes (log2)
system.mem_ctrl.writePktSize::4                     0                       # Write request sizes (log2)
system.mem_ctrl.writePktSize::5                     0                       # Write request sizes (log2)
system.mem_ctrl.writePktSize::6                908696                       # Write request sizes (log2)
system.mem_ctrl.writeReqs                      908696                       # Number of write requests accepted
system.mem_ctrl.writeRowHitRate                 65.31                       # Row buffer hit rate for writes
system.mem_ctrl.writeRowHits                   593446                       # Number of row buffer hits during writes
system.mem_ctrl_0.actBackEnergy           73300553910                       # Energy for active background per rank (pJ)
system.mem_ctrl_0.actEnergy                4022240460                       # Energy for activate commands per rank (pJ)
system.mem_ctrl_0.actPowerDownEnergy                0                       # Energy for active power-down per rank (pJ)
system.mem_ctrl_0.averagePower             592.137584                       # Core power per rank (mW)
system.mem_ctrl_0.memoryStateTime::IDLE   18333799827                       # Time in different power states
system.mem_ctrl_0.memoryStateTime::REF     6059300000                       # Time in different power states
system.mem_ctrl_0.memoryStateTime::SREF             0                       # Time in different power states
system.mem_ctrl_0.memoryStateTime::PRE_PDN            0                       # Time in different power states
system.mem_ctrl_0.memoryStateTime::ACT   157066366173                       # Time in different power states
system.mem_ctrl_0.memoryStateTime::ACT_PDN            0                       # Time in different power states
system.mem_ctrl_0.preBackEnergy            7953652800                       # Energy for precharge background per rank (pJ)
system.mem_ctrl_0.preEnergy                2137867710                       # Energy for precharge commands per rank (pJ)
system.mem_ctrl_0.prePowerDownEnergy                0                       # Energy for precharge power-down per rank (pJ)
system.mem_ctrl_0.readEnergy               3340855980                       # Energy for read commands per rank (pJ)
system.mem_ctrl_0.refreshEnergy          14324185200.000002                       # Energy for refresh commands per rank (pJ)
system.mem_ctrl_0.selfRefreshEnergy                 0                       # Energy for self refresh per rank (pJ)
system.mem_ctrl_0.totalEnergy            107448969840                       # Total energy per rank (pJ)
system.mem_ctrl_0.totalIdleTime                     0                       # Total Idle time Per DRAM Rank
system.mem_ctrl_0.writeEnergy              2369613780                       # Energy for write commands per rank (pJ)
system.mem_ctrl_1.actBackEnergy           73516585050                       # Energy for active background per rank (pJ)
system.mem_ctrl_1.actEnergy                4060210980                       # Energy for activate commands per rank (pJ)
system.mem_ctrl_1.actPowerDownEnergy                0                       # Energy for active power-down per rank (pJ)
system.mem_ctrl_1.averagePower             592.953326                       # Core power per rank (mW)
system.mem_ctrl_1.memoryStateTime::IDLE   17962263740                       # Time in different power states
system.mem_ctrl_1.memoryStateTime::REF     6059300000                       # Time in different power states
system.mem_ctrl_1.memoryStateTime::SREF             0                       # Time in different power states
system.mem_ctrl_1.memoryStateTime::PRE_PDN            0                       # Time in different power states
system.mem_ctrl_1.memoryStateTime::ACT   157437902260                       # Time in different power states
system.mem_ctrl_1.memoryStateTime::ACT_PDN            0                       # Time in different power states
system.mem_ctrl_1.preBackEnergy            7771731840                       # Energy for precharge background per rank (pJ)
system.mem_ctrl_1.preEnergy                2158053315                       # Energy for precharge commands per rank (pJ)
system.mem_ctrl_1.prePowerDownEnergy                0                       # Energy for precharge power-down per rank (pJ)
system.mem_ctrl_1.readEnergy               3392599560                       # Energy for read commands per rank (pJ)
system.mem_ctrl_1.refreshEnergy          14324185200.000002                       # Energy for refresh commands per rank (pJ)
system.mem_ctrl_1.selfRefreshEnergy                 0                       # Energy for self refresh per rank (pJ)
system.mem_ctrl_1.totalEnergy            107596993905                       # Total energy per rank (pJ)
system.mem_ctrl_1.totalIdleTime                     0                       # Total Idle time Per DRAM Rank
system.mem_ctrl_1.writeEnergy              2373627960                       # Energy for write commands per rank (pJ)
system.membus.pkt_count_system.l2cache.mem_side::system.mem_ctrl.port      2817662                       # Packet count per connected master and slave (bytes)
system.membus.pkt_count_system.l2cache.mem_side::total      2817662                       # Packet count per connected master and slave (bytes)
system.membus.pkt_count::total                2817662                       # Packet count per connected master and slave (bytes)
system.membus.pkt_size_system.l2cache.mem_side::system.mem_ctrl.port    118512832                       # Cumulative packet size per connected master and slave (bytes)
system.membus.pkt_size_system.l2cache.mem_side::total    118512832                       # Cumulative packet size per connected master and slave (bytes)
system.membus.pkt_size::total               118512832                       # Cumulative packet size per connected master and slave (bytes)
system.membus.pwrStateResidencyTicks::UNDEFINED 181459466000                       # Cumulative time (in ticks) in various power states
system.membus.reqLayer8.occupancy          5582851364                       # Layer occupancy (ticks)
system.membus.reqLayer8.utilization               3.1                       # Layer utilization (%)
system.membus.respLayer0.occupancy         5296597487                       # Layer occupancy (ticks)
system.membus.respLayer0.utilization              2.9                       # Layer utilization (%)
system.membus.snoopTraffic                          0                       # Total snoop traffic (bytes)
system.membus.snoop_fanout::samples            943067                       # Request fanout histogram
system.membus.snoop_fanout::mean                    0                       # Request fanout histogram
system.membus.snoop_fanout::stdev                   0                       # Request fanout histogram
system.membus.snoop_fanout::underflows              0      0.00%      0.00% # Request fanout histogram
system.membus.snoop_fanout::0                  943067    100.00%    100.00% # Request fanout histogram
system.membus.snoop_fanout::1                       0      0.00%    100.00% # Request fanout histogram
system.membus.snoop_fanout::overflows               0      0.00%    100.00% # Request fanout histogram
system.membus.snoop_fanout::min_value               0                       # Request fanout histogram
system.membus.snoop_fanout::max_value               0                       # Request fanout histogram
system.membus.snoop_fanout::total              943067                       # Request fanout histogram
system.membus.snoop_filter.hit_multi_requests            0                       # Number of requests hitting in the snoop filter with multiple (>1) holders of the requested data.
system.membus.snoop_filter.hit_multi_snoops            0                       # Number of snoops hitting in the snoop filter with multiple (>1) holders of the requested data.
system.membus.snoop_filter.hit_single_requests       931528                       # Number of requests hitting in the snoop filter with a single holder of the requested data.
system.membus.snoop_filter.hit_single_snoops            0                       # Number of snoops hitting in the snoop filter with a single holder of the requested data.
system.membus.snoop_filter.tot_requests       1874595                       # Total number of requests made to the snoop filter.
system.membus.snoop_filter.tot_snoops               0                       # Total number of snoops made to the snoop filter.
system.membus.snoops                                0                       # Total snoops (count)
system.membus.trans_dist::ReadResp             887183                       # Transaction distribution
system.membus.trans_dist::WritebackDirty       908696                       # Transaction distribution
system.membus.trans_dist::CleanEvict            22832                       # Transaction distribution
system.membus.trans_dist::ReadExReq             55884                       # Transaction distribution
system.membus.trans_dist::ReadExResp            55884                       # Transaction distribution
system.membus.trans_dist::ReadSharedReq        887183                       # Transaction distribution

---------- End Simulation Statistics   ----------
