
---------- Begin Simulation Statistics ----------
final_tick                               185785892000                       # Number of ticks from beginning of simulation (restored from checkpoints and never reset)
host_inst_rate                                 379661                       # Simulator instruction rate (inst/s)
host_mem_usage                                 779000                       # Number of bytes of host memory used
host_op_rate                                   682607                       # Simulator op (including micro ops) rate (op/s)
host_seconds                                   469.30                       # Real time elapsed on the host
host_tick_rate                              395880594                       # Simulator tick rate (ticks/s)
sim_freq                                 1000000000000                       # Frequency of simulated ticks
sim_insts                                   178174227                       # Number of instructions simulated
sim_ops                                     320346110                       # Number of ops (including micro ops) simulated
sim_seconds                                  0.185786                       # Number of seconds simulated
sim_ticks                                185785892000                       # Number of ticks simulated
system.clk_domain.clock                          1000                       # Clock period in ticks
system.clk_domain.voltage_domain.voltage            1                       # Voltage in Volts
system.cpu0.Branches                         11271693                       # Number of branches fetched
system.cpu0.committedInsts                   50000000                       # Number of instructions committed
system.cpu0.committedOps                     93416416                       # Number of ops (including micro ops) committed
system.cpu0.dcache.ReadReq_accesses::.cpu0.data     10895037                       # number of ReadReq accesses(hits+misses)
system.cpu0.dcache.ReadReq_accesses::total     10895037                       # number of ReadReq accesses(hits+misses)
system.cpu0.dcache.ReadReq_avg_miss_latency::.cpu0.data 121718.214312                       # average ReadReq miss latency
system.cpu0.dcache.ReadReq_avg_miss_latency::total 121718.214312                       # average ReadReq miss latency
system.cpu0.dcache.ReadReq_avg_mshr_miss_latency::.cpu0.data 119718.214312                       # average ReadReq mshr miss latency
system.cpu0.dcache.ReadReq_avg_mshr_miss_latency::total 119718.214312                       # average ReadReq mshr miss latency
system.cpu0.dcache.ReadReq_hits::.cpu0.data     10881328                       # number of ReadReq hits
system.cpu0.dcache.ReadReq_hits::total       10881328                       # number of ReadReq hits
system.cpu0.dcache.ReadReq_miss_latency::.cpu0.data   1668635000                       # number of ReadReq miss cycles
system.cpu0.dcache.ReadReq_miss_latency::total   1668635000                       # number of ReadReq miss cycles
system.cpu0.dcache.ReadReq_miss_rate::.cpu0.data     0.001258                       # miss rate for ReadReq accesses
system.cpu0.dcache.ReadReq_miss_rate::total     0.001258                       # miss rate for ReadReq accesses
system.cpu0.dcache.ReadReq_misses::.cpu0.data        13709                       # number of ReadReq misses
system.cpu0.dcache.ReadReq_misses::total        13709                       # number of ReadReq misses
system.cpu0.dcache.ReadReq_mshr_miss_latency::.cpu0.data   1641217000                       # number of ReadReq MSHR miss cycles
system.cpu0.dcache.ReadReq_mshr_miss_latency::total   1641217000                       # number of ReadReq MSHR miss cycles
system.cpu0.dcache.ReadReq_mshr_miss_rate::.cpu0.data     0.001258                       # mshr miss rate for ReadReq accesses
system.cpu0.dcache.ReadReq_mshr_miss_rate::total     0.001258                       # mshr miss rate for ReadReq accesses
system.cpu0.dcache.ReadReq_mshr_misses::.cpu0.data        13709                       # number of ReadReq MSHR misses
system.cpu0.dcache.ReadReq_mshr_misses::total        13709                       # number of ReadReq MSHR misses
system.cpu0.dcache.WriteReq_accesses::.cpu0.data      7274294                       # number of WriteReq accesses(hits+misses)
system.cpu0.dcache.WriteReq_accesses::total      7274294                       # number of WriteReq accesses(hits+misses)
system.cpu0.dcache.WriteReq_avg_miss_latency::.cpu0.data 136796.711250                       # average WriteReq miss latency
system.cpu0.dcache.WriteReq_avg_miss_latency::total 136796.711250                       # average WriteReq miss latency
system.cpu0.dcache.WriteReq_avg_mshr_miss_latency::.cpu0.data 134796.711250                       # average WriteReq mshr miss latency
system.cpu0.dcache.WriteReq_avg_mshr_miss_latency::total 134796.711250                       # average WriteReq mshr miss latency
system.cpu0.dcache.WriteReq_hits::.cpu0.data      7222481                       # number of WriteReq hits
system.cpu0.dcache.WriteReq_hits::total       7222481                       # number of WriteReq hits
system.cpu0.dcache.WriteReq_miss_latency::.cpu0.data   7087848000                       # number of WriteReq miss cycles
system.cpu0.dcache.WriteReq_miss_latency::total   7087848000                       # number of WriteReq miss cycles
system.cpu0.dcache.WriteReq_miss_rate::.cpu0.data     0.007123                       # miss rate for WriteReq accesses
system.cpu0.dcache.WriteReq_miss_rate::total     0.007123                       # miss rate for WriteReq accesses
system.cpu0.dcache.WriteReq_misses::.cpu0.data        51813                       # number of WriteReq misses
system.cpu0.dcache.WriteReq_misses::total        51813                       # number of WriteReq misses
system.cpu0.dcache.WriteReq_mshr_miss_latency::.cpu0.data   6984222000                       # number of WriteReq MSHR miss cycles
system.cpu0.dcache.WriteReq_mshr_miss_latency::total   6984222000                       # number of WriteReq MSHR miss cycles
system.cpu0.dcache.WriteReq_mshr_miss_rate::.cpu0.data     0.007123                       # mshr miss rate for WriteReq accesses
system.cpu0.dcache.WriteReq_mshr_miss_rate::total     0.007123                       # mshr miss rate for WriteReq accesses
system.cpu0.dcache.WriteReq_mshr_misses::.cpu0.data        51813                       # number of WriteReq MSHR misses
system.cpu0.dcache.WriteReq_mshr_misses::total        51813                       # number of WriteReq MSHR misses
system.cpu0.dcache.avg_blocked_cycles::no_mshrs          nan                       # average number of cycles each access was blocked
system.cpu0.dcache.avg_blocked_cycles::no_targets          nan                       # average number of cycles each access was blocked
system.cpu0.dcache.blocked::no_mshrs                0                       # number of cycles access was blocked
system.cpu0.dcache.blocked::no_targets              0                       # number of cycles access was blocked
system.cpu0.dcache.blocked_cycles::no_mshrs            0                       # number of cycles access was blocked
system.cpu0.dcache.blocked_cycles::no_targets            0                       # number of cycles access was blocked
system.cpu0.dcache.demand_accesses::.cpu0.data     18169331                       # number of demand (read+write) accesses
system.cpu0.dcache.demand_accesses::total     18169331                       # number of demand (read+write) accesses
system.cpu0.dcache.demand_avg_miss_latency::.cpu0.data 133641.876011                       # average overall miss latency
system.cpu0.dcache.demand_avg_miss_latency::total 133641.876011                       # average overall miss latency
system.cpu0.dcache.demand_avg_mshr_miss_latency::.cpu0.data 131641.876011                       # average overall mshr miss latency
system.cpu0.dcache.demand_avg_mshr_miss_latency::total 131641.876011                       # average overall mshr miss latency
system.cpu0.dcache.demand_hits::.cpu0.data     18103809                       # number of demand (read+write) hits
system.cpu0.dcache.demand_hits::total        18103809                       # number of demand (read+write) hits
system.cpu0.dcache.demand_miss_latency::.cpu0.data   8756483000                       # number of demand (read+write) miss cycles
system.cpu0.dcache.demand_miss_latency::total   8756483000                       # number of demand (read+write) miss cycles
system.cpu0.dcache.demand_miss_rate::.cpu0.data     0.003606                       # miss rate for demand accesses
system.cpu0.dcache.demand_miss_rate::total     0.003606                       # miss rate for demand accesses
system.cpu0.dcache.demand_misses::.cpu0.data        65522                       # number of demand (read+write) misses
system.cpu0.dcache.demand_misses::total         65522                       # number of demand (read+write) misses
system.cpu0.dcache.demand_mshr_miss_latency::.cpu0.data   8625439000                       # number of demand (read+write) MSHR miss cycles
system.cpu0.dcache.demand_mshr_miss_latency::total   8625439000                       # number of demand (read+write) MSHR miss cycles
system.cpu0.dcache.demand_mshr_miss_rate::.cpu0.data     0.003606                       # mshr miss rate for demand accesses
system.cpu0.dcache.demand_mshr_miss_rate::total     0.003606                       # mshr miss rate for demand accesses
system.cpu0.dcache.demand_mshr_misses::.cpu0.data        65522                       # number of demand (read+write) MSHR misses
system.cpu0.dcache.demand_mshr_misses::total        65522                       # number of demand (read+write) MSHR misses
system.cpu0.dcache.overall_accesses::.cpu0.data     18169331                       # number of overall (read+write) accesses
system.cpu0.dcache.overall_accesses::total     18169331                       # number of overall (read+write) accesses
system.cpu0.dcache.overall_avg_miss_latency::.cpu0.data 133641.876011                       # average overall miss latency
system.cpu0.dcache.overall_avg_miss_latency::total 133641.876011                       # average overall miss latency
system.cpu0.dcache.overall_avg_mshr_miss_latency::.cpu0.data 131641.876011                       # average overall mshr miss latency
system.cpu0.dcache.overall_avg_mshr_miss_latency::total 131641.876011                       # average overall mshr miss latency
system.cpu0.dcache.overall_hits::.cpu0.data     18103809                       # number of overall hits
system.cpu0.dcache.overall_hits::total       18103809                       # number of overall hits
system.cpu0.dcache.overall_miss_latency::.cpu0.data   8756483000                       # number of overall miss cycles
system.cpu0.dcache.overall_miss_latency::total   8756483000                       # number of overall miss cycles
system.cpu0.dcache.overall_miss_rate::.cpu0.data     0.003606                       # miss rate for overall accesses
system.cpu0.dcache.overall_miss_rate::total     0.003606                       # miss rate for overall accesses
system.cpu0.dcache.overall_misses::.cpu0.data        65522                       # number of overall misses
system.cpu0.dcache.overall_misses::total        65522                       # number of overall misses
system.cpu0.dcache.overall_mshr_miss_latency::.cpu0.data   8625439000                       # number of overall MSHR miss cycles
system.cpu0.dcache.overall_mshr_miss_latency::total   8625439000                       # number of overall MSHR miss cycles
system.cpu0.dcache.overall_mshr_miss_rate::.cpu0.data     0.003606                       # mshr miss rate for overall accesses
system.cpu0.dcache.overall_mshr_miss_rate::total     0.003606                       # mshr miss rate for overall accesses
system.cpu0.dcache.overall_mshr_misses::.cpu0.data        65522                       # number of overall MSHR misses
system.cpu0.dcache.overall_mshr_misses::total        65522                       # number of overall MSHR misses
system.cpu0.dcache.pwrStateResidencyTicks::UNDEFINED 185785892000                       # Cumulative time (in ticks) in various power states
system.cpu0.dcache.replacements                 64498                       # number of replacements
system.cpu0.dcache.tags.age_task_id_blocks_1024::0            1                       # Occupied blocks per task id
system.cpu0.dcache.tags.age_task_id_blocks_1024::1           18                       # Occupied blocks per task id
system.cpu0.dcache.tags.age_task_id_blocks_1024::2          158                       # Occupied blocks per task id
system.cpu0.dcache.tags.age_task_id_blocks_1024::3          759                       # Occupied blocks per task id
system.cpu0.dcache.tags.age_task_id_blocks_1024::4           88                       # Occupied blocks per task id
system.cpu0.dcache.tags.avg_refs           277.301227                       # Average number of references to valid blocks.
system.cpu0.dcache.tags.data_accesses        36404184                       # Number of data accesses
system.cpu0.dcache.tags.occ_blocks::.cpu0.data  1020.341187                       # Average occupied blocks per requestor
system.cpu0.dcache.tags.occ_percent::.cpu0.data     0.996427                       # Average percentage of cache occupancy
system.cpu0.dcache.tags.occ_percent::total     0.996427                       # Average percentage of cache occupancy
system.cpu0.dcache.tags.occ_task_id_blocks::1024         1024                       # Occupied blocks per task id
system.cpu0.dcache.tags.occ_task_id_percent::1024            1                       # Percentage of cache occupancy per task id
system.cpu0.dcache.tags.pwrStateResidencyTicks::UNDEFINED 185785892000                       # Cumulative time (in ticks) in various power states
system.cpu0.dcache.tags.sampled_refs            65522                       # Sample count of references to valid blocks.
system.cpu0.dcache.tags.tag_accesses         36404184                       # Number of tag accesses
system.cpu0.dcache.tags.tagsinuse         1020.341187                       # Cycle average of tags in use
system.cpu0.dcache.tags.total_refs           18169331                       # Total number of references to valid blocks.
system.cpu0.dcache.tags.warmup_cycle           220000                       # Cycle when the warmup percentage was hit.
system.cpu0.dcache.writebacks::.writebacks        61350                       # number of writebacks
system.cpu0.dcache.writebacks::total            61350                       # number of writebacks
system.cpu0.dtb.rdAccesses                   10895037                       # TLB accesses on read requests
system.cpu0.dtb.rdMisses                         9252                       # TLB misses on read requests
system.cpu0.dtb.walker.pwrStateResidencyTicks::UNDEFINED 185785892000                       # Cumulative time (in ticks) in various power states
system.cpu0.dtb.wrAccesses                    7274294                       # TLB accesses on write requests
system.cpu0.dtb.wrMisses                          898                       # TLB misses on write requests
system.cpu0.icache.ReadReq_accesses::.cpu0.inst     67564204                       # number of ReadReq accesses(hits+misses)
system.cpu0.icache.ReadReq_accesses::total     67564204                       # number of ReadReq accesses(hits+misses)
system.cpu0.icache.ReadReq_avg_miss_latency::.cpu0.inst 27250.181654                       # average ReadReq miss latency
system.cpu0.icache.ReadReq_avg_miss_latency::total 27250.181654                       # average ReadReq miss latency
system.cpu0.icache.ReadReq_avg_mshr_miss_latency::.cpu0.inst 25250.181654                       # average ReadReq mshr miss latency
system.cpu0.icache.ReadReq_avg_mshr_miss_latency::total 25250.181654                       # average ReadReq mshr miss latency
system.cpu0.icache.ReadReq_hits::.cpu0.inst     67338500                       # number of ReadReq hits
system.cpu0.icache.ReadReq_hits::total       67338500                       # number of ReadReq hits
system.cpu0.icache.ReadReq_miss_latency::.cpu0.inst   6150475000                       # number of ReadReq miss cycles
system.cpu0.icache.ReadReq_miss_latency::total   6150475000                       # number of ReadReq miss cycles
system.cpu0.icache.ReadReq_miss_rate::.cpu0.inst     0.003341                       # miss rate for ReadReq accesses
system.cpu0.icache.ReadReq_miss_rate::total     0.003341                       # miss rate for ReadReq accesses
system.cpu0.icache.ReadReq_misses::.cpu0.inst       225704                       # number of ReadReq misses
system.cpu0.icache.ReadReq_misses::total       225704                       # number of ReadReq misses
system.cpu0.icache.ReadReq_mshr_miss_latency::.cpu0.inst   5699067000                       # number of ReadReq MSHR miss cycles
system.cpu0.icache.ReadReq_mshr_miss_latency::total   5699067000                       # number of ReadReq MSHR miss cycles
system.cpu0.icache.ReadReq_mshr_miss_rate::.cpu0.inst     0.003341                       # mshr miss rate for ReadReq accesses
system.cpu0.icache.ReadReq_mshr_miss_rate::total     0.003341                       # mshr miss rate for ReadReq accesses
system.cpu0.icache.ReadReq_mshr_misses::.cpu0.inst       225704                       # number of ReadReq MSHR misses
system.cpu0.icache.ReadReq_mshr_misses::total       225704                       # number of ReadReq MSHR misses
system.cpu0.icache.avg_blocked_cycles::no_mshrs          nan                       # average number of cycles each access was blocked
system.cpu0.icache.avg_blocked_cycles::no_targets          nan                       # average number of cycles each access was blocked
system.cpu0.icache.blocked::no_mshrs                0                       # number of cycles access was blocked
system.cpu0.icache.blocked::no_targets              0                       # number of cycles access was blocked
system.cpu0.icache.blocked_cycles::no_mshrs            0                       # number of cycles access was blocked
system.cpu0.icache.blocked_cycles::no_targets            0                       # number of cycles access was blocked
system.cpu0.icache.demand_accesses::.cpu0.inst     67564204                       # number of demand (read+write) accesses
system.cpu0.icache.demand_accesses::total     67564204                       # number of demand (read+write) accesses
system.cpu0.icache.demand_avg_miss_latency::.cpu0.inst 27250.181654                       # average overall miss latency
system.cpu0.icache.demand_avg_miss_latency::total 27250.181654                       # average overall miss latency
system.cpu0.icache.demand_avg_mshr_miss_latency::.cpu0.inst 25250.181654                       # average overall mshr miss latency
system.cpu0.icache.demand_avg_mshr_miss_latency::total 25250.181654                       # average overall mshr miss latency
system.cpu0.icache.demand_hits::.cpu0.inst     67338500                       # number of demand (read+write) hits
system.cpu0.icache.demand_hits::total        67338500                       # number of demand (read+write) hits
system.cpu0.icache.demand_miss_latency::.cpu0.inst   6150475000                       # number of demand (read+write) miss cycles
system.cpu0.icache.demand_miss_latency::total   6150475000                       # number of demand (read+write) miss cycles
system.cpu0.icache.demand_miss_rate::.cpu0.inst     0.003341                       # miss rate for demand accesses
system.cpu0.icache.demand_miss_rate::total     0.003341                       # miss rate for demand accesses
system.cpu0.icache.demand_misses::.cpu0.inst       225704                       # number of demand (read+write) misses
system.cpu0.icache.demand_misses::total        225704                       # number of demand (read+write) misses
system.cpu0.icache.demand_mshr_miss_latency::.cpu0.inst   5699067000                       # number of demand (read+write) MSHR miss cycles
system.cpu0.icache.demand_mshr_miss_latency::total   5699067000                       # number of demand (read+write) MSHR miss cycles
system.cpu0.icache.demand_mshr_miss_rate::.cpu0.inst     0.003341                       # mshr miss rate for demand accesses
system.cpu0.icache.demand_mshr_miss_rate::total     0.003341                       # mshr miss rate for demand accesses
system.cpu0.icache.demand_mshr_misses::.cpu0.inst       225704                       # number of demand (read+write) MSHR misses
system.cpu0.icache.demand_mshr_misses::total       225704                       # number of demand (read+write) MSHR misses
system.cpu0.icache.overall_accesses::.cpu0.inst     67564204                       # number of overall (read+write) accesses
system.cpu0.icache.overall_accesses::total     67564204                       # number of overall (read+write) accesses
system.cpu0.icache.overall_avg_miss_latency::.cpu0.inst 27250.181654                       # average overall miss latency
system.cpu0.icache.overall_avg_miss_latency::total 27250.181654                       # average overall miss latency
system.cpu0.icache.overall_avg_mshr_miss_latency::.cpu0.inst 25250.181654                       # average overall mshr miss latency
system.cpu0.icache.overall_avg_mshr_miss_latency::total 25250.181654                       # average overall mshr miss latency
system.cpu0.icache.overall_hits::.cpu0.inst     67338500                       # number of overall hits
system.cpu0.icache.overall_hits::total       67338500                       # number of overall hits
system.cpu0.icache.overall_miss_latency::.cpu0.inst   6150475000                       # number of overall miss cycles
system.cpu0.icache.overall_miss_latency::total   6150475000                       # number of overall miss cycles
system.cpu0.icache.overall_miss_rate::.cpu0.inst     0.003341                       # miss rate for overall accesses
system.cpu0.icache.overall_miss_rate::total     0.003341                       # miss rate for overall accesses
system.cpu0.icache.overall_misses::.cpu0.inst       225704                       # number of overall misses
system.cpu0.icache.overall_misses::total       225704                       # number of overall misses
system.cpu0.icache.overall_mshr_miss_latency::.cpu0.inst   5699067000                       # number of overall MSHR miss cycles
system.cpu0.icache.overall_mshr_miss_latency::total   5699067000                       # number of overall MSHR miss cycles
system.cpu0.icache.overall_mshr_miss_rate::.cpu0.inst     0.003341                       # mshr miss rate for overall accesses
system.cpu0.icache.overall_mshr_miss_rate::total     0.003341                       # mshr miss rate for overall accesses
system.cpu0.icache.overall_mshr_misses::.cpu0.inst       225704                       # number of overall MSHR misses
system.cpu0.icache.overall_mshr_misses::total       225704                       # number of overall MSHR misses
system.cpu0.icache.pwrStateResidencyTicks::UNDEFINED 185785892000                       # Cumulative time (in ticks) in various power states
system.cpu0.icache.replacements                225451                       # number of replacements
system.cpu0.icache.tags.age_task_id_blocks_1024::0            6                       # Occupied blocks per task id
system.cpu0.icache.tags.age_task_id_blocks_1024::3           10                       # Occupied blocks per task id
system.cpu0.icache.tags.age_task_id_blocks_1024::4          237                       # Occupied blocks per task id
system.cpu0.icache.tags.avg_refs           299.348722                       # Average number of references to valid blocks.
system.cpu0.icache.tags.data_accesses       135354112                       # Number of data accesses
system.cpu0.icache.tags.occ_blocks::.cpu0.inst   252.703476                       # Average occupied blocks per requestor
system.cpu0.icache.tags.occ_percent::.cpu0.inst     0.987123                       # Average percentage of cache occupancy
system.cpu0.icache.tags.occ_percent::total     0.987123                       # Average percentage of cache occupancy
system.cpu0.icache.tags.occ_task_id_blocks::1024          253                       # Occupied blocks per task id
system.cpu0.icache.tags.occ_task_id_percent::1024     0.988281                       # Percentage of cache occupancy per task id
system.cpu0.icache.tags.pwrStateResidencyTicks::UNDEFINED 185785892000                       # Cumulative time (in ticks) in various power states
system.cpu0.icache.tags.sampled_refs           225704                       # Sample count of references to valid blocks.
system.cpu0.icache.tags.tag_accesses        135354112                       # Number of tag accesses
system.cpu0.icache.tags.tagsinuse          252.703476                       # Cycle average of tags in use
system.cpu0.icache.tags.total_refs           67564204                       # Total number of references to valid blocks.
system.cpu0.icache.tags.warmup_cycle           107000                       # Cycle when the warmup percentage was hit.
system.cpu0.idle_fraction                           0                       # Percentage of idle cycles
system.cpu0.interrupts.clk_domain.clock         16000                       # Clock period in ticks
system.cpu0.interrupts.pwrStateResidencyTicks::UNDEFINED 185785892000                       # Cumulative time (in ticks) in various power states
system.cpu0.itb.rdAccesses                          0                       # TLB accesses on read requests
system.cpu0.itb.rdMisses                            0                       # TLB misses on read requests
system.cpu0.itb.walker.pwrStateResidencyTicks::UNDEFINED 185785892000                       # Cumulative time (in ticks) in various power states
system.cpu0.itb.wrAccesses                   67564204                       # TLB accesses on write requests
system.cpu0.itb.wrMisses                          131                       # TLB misses on write requests
system.cpu0.not_idle_fraction                       1                       # Percentage of non-idle cycles
system.cpu0.numCycles                       185785892                       # number of cpu cycles simulated
system.cpu0.numWorkItemsCompleted                   0                       # number of work items this cpu completed
system.cpu0.numWorkItemsStarted                     0                       # number of work items this cpu started
system.cpu0.num_busy_cycles                 185785892                       # Number of busy cycles
system.cpu0.num_cc_register_reads            57999789                       # number of times the CC registers were read
system.cpu0.num_cc_register_writes           29711192                       # number of times the CC registers were written
system.cpu0.num_conditional_control_insts      9157455                       # number of instructions that are conditional controls
system.cpu0.num_fp_alu_accesses               1222432                       # Number of float alu accesses
system.cpu0.num_fp_insts                      1222432                       # number of float instructions
system.cpu0.num_fp_register_reads             1373816                       # number of times the floating registers were read
system.cpu0.num_fp_register_writes             922801                       # number of times the floating registers were written
system.cpu0.num_func_calls                     950822                       # number of times a function call or return occured
system.cpu0.num_idle_cycles                         0                       # Number of idle cycles
system.cpu0.num_int_alu_accesses             92671260                       # Number of integer alu accesses
system.cpu0.num_int_insts                    92671260                       # number of integer instructions
system.cpu0.num_int_register_reads          179379720                       # number of times the integer registers were read
system.cpu0.num_int_register_writes          74049566                       # number of times the integer registers were written
system.cpu0.num_load_insts                   10889359                       # Number of load instructions
system.cpu0.num_mem_refs                     18163650                       # number of memory refs
system.cpu0.num_store_insts                   7274291                       # Number of store instructions
system.cpu0.num_vec_alu_accesses                    0                       # Number of vector alu accesses
system.cpu0.num_vec_insts                           0                       # number of vector instructions
system.cpu0.num_vec_register_reads                  0                       # number of times the vector registers were read
system.cpu0.num_vec_register_writes                 0                       # number of times the vector registers were written
system.cpu0.op_class::No_OpClass               166650      0.18%      0.18% # Class of executed instruction
system.cpu0.op_class::IntAlu                 74178542     79.41%     79.58% # Class of executed instruction
system.cpu0.op_class::IntMult                  223387      0.24%     79.82% # Class of executed instruction
system.cpu0.op_class::IntDiv                       21      0.00%     79.82% # Class of executed instruction
system.cpu0.op_class::FloatAdd                 117293      0.13%     79.95% # Class of executed instruction
system.cpu0.op_class::FloatCmp                      0      0.00%     79.95% # Class of executed instruction
system.cpu0.op_class::FloatCvt                      0      0.00%     79.95% # Class of executed instruction
system.cpu0.op_class::FloatMult                     0      0.00%     79.95% # Class of executed instruction
system.cpu0.op_class::FloatMultAcc                  0      0.00%     79.95% # Class of executed instruction
system.cpu0.op_class::FloatDiv                      0      0.00%     79.95% # Class of executed instruction
system.cpu0.op_class::FloatMisc                     0      0.00%     79.95% # Class of executed instruction
system.cpu0.op_class::FloatSqrt                     0      0.00%     79.95% # Class of executed instruction
system.cpu0.op_class::SimdAdd                     374      0.00%     79.95% # Class of executed instruction
system.cpu0.op_class::SimdAddAcc                    0      0.00%     79.95% # Class of executed instruction
system.cpu0.op_class::SimdAlu                     100      0.00%     79.95% # Class of executed instruction
system.cpu0.op_class::SimdCmp                       0      0.00%     79.95% # Class of executed instruction
system.cpu0.op_class::SimdCvt                  110402      0.12%     80.07% # Class of executed instruction
system.cpu0.op_class::SimdMisc                 455811      0.49%     80.56% # Class of executed instruction
system.cpu0.op_class::SimdMult                      0      0.00%     80.56% # Class of executed instruction
system.cpu0.op_class::SimdMultAcc                   0      0.00%     80.56% # Class of executed instruction
system.cpu0.op_class::SimdShift                   186      0.00%     80.56% # Class of executed instruction
system.cpu0.op_class::SimdShiftAcc                  0      0.00%     80.56% # Class of executed instruction
system.cpu0.op_class::SimdDiv                       0      0.00%     80.56% # Class of executed instruction
system.cpu0.op_class::SimdSqrt                      0      0.00%     80.56% # Class of executed instruction
system.cpu0.op_class::SimdFloatAdd                  0      0.00%     80.56% # Class of executed instruction
system.cpu0.op_class::SimdFloatAlu                  0      0.00%     80.56% # Class of executed instruction
system.cpu0.op_class::SimdFloatCmp                  0      0.00%     80.56% # Class of executed instruction
system.cpu0.op_class::SimdFloatCvt                  0      0.00%     80.56% # Class of executed instruction
system.cpu0.op_class::SimdFloatDiv                  0      0.00%     80.56% # Class of executed instruction
system.cpu0.op_class::SimdFloatMisc                 0      0.00%     80.56% # Class of executed instruction
system.cpu0.op_class::SimdFloatMult                 0      0.00%     80.56% # Class of executed instruction
system.cpu0.op_class::SimdFloatMultAcc              0      0.00%     80.56% # Class of executed instruction
system.cpu0.op_class::SimdFloatSqrt                 0      0.00%     80.56% # Class of executed instruction
system.cpu0.op_class::SimdReduceAdd                 0      0.00%     80.56% # Class of executed instruction
system.cpu0.op_class::SimdReduceAlu                 0      0.00%     80.56% # Class of executed instruction
system.cpu0.op_class::SimdReduceCmp                 0      0.00%     80.56% # Class of executed instruction
system.cpu0.op_class::SimdFloatReduceAdd            0      0.00%     80.56% # Class of executed instruction
system.cpu0.op_class::SimdFloatReduceCmp            0      0.00%     80.56% # Class of executed instruction
system.cpu0.op_class::SimdAes                       0      0.00%     80.56% # Class of executed instruction
system.cpu0.op_class::SimdAesMix                    0      0.00%     80.56% # Class of executed instruction
system.cpu0.op_class::SimdSha1Hash                  0      0.00%     80.56% # Class of executed instruction
system.cpu0.op_class::SimdSha1Hash2                 0      0.00%     80.56% # Class of executed instruction
system.cpu0.op_class::SimdSha256Hash                0      0.00%     80.56% # Class of executed instruction
system.cpu0.op_class::SimdSha256Hash2               0      0.00%     80.56% # Class of executed instruction
system.cpu0.op_class::SimdShaSigma2                 0      0.00%     80.56% # Class of executed instruction
system.cpu0.op_class::SimdShaSigma3                 0      0.00%     80.56% # Class of executed instruction
system.cpu0.op_class::SimdPredAlu                   0      0.00%     80.56% # Class of executed instruction
system.cpu0.op_class::MemRead                10590223     11.34%     91.89% # Class of executed instruction
system.cpu0.op_class::MemWrite                7085002      7.58%     99.48% # Class of executed instruction
system.cpu0.op_class::FloatMemRead             299136      0.32%     99.80% # Class of executed instruction
system.cpu0.op_class::FloatMemWrite            189289      0.20%    100.00% # Class of executed instruction
system.cpu0.op_class::IprAccess                     0      0.00%    100.00% # Class of executed instruction
system.cpu0.op_class::InstPrefetch                  0      0.00%    100.00% # Class of executed instruction
system.cpu0.op_class::total                  93416416                       # Class of executed instruction
system.cpu0.pwrStateResidencyTicks::ON   185785892000                       # Cumulative time (in ticks) in various power states
system.cpu0.workload.numSyscalls                   56                       # Number of system calls
system.cpu1.Branches                         11266264                       # Number of branches fetched
system.cpu1.committedInsts                   49976675                       # Number of instructions committed
system.cpu1.committedOps                     93372376                       # Number of ops (including micro ops) committed
system.cpu1.dcache.ReadReq_accesses::.cpu1.data     10890091                       # number of ReadReq accesses(hits+misses)
system.cpu1.dcache.ReadReq_accesses::total     10890091                       # number of ReadReq accesses(hits+misses)
system.cpu1.dcache.ReadReq_avg_miss_latency::.cpu1.data 118743.245106                       # average ReadReq miss latency
system.cpu1.dcache.ReadReq_avg_miss_latency::total 118743.245106                       # average ReadReq miss latency
system.cpu1.dcache.ReadReq_avg_mshr_miss_latency::.cpu1.data 116743.245106                       # average ReadReq mshr miss latency
system.cpu1.dcache.ReadReq_avg_mshr_miss_latency::total 116743.245106                       # average ReadReq mshr miss latency
system.cpu1.dcache.ReadReq_hits::.cpu1.data     10875583                       # number of ReadReq hits
system.cpu1.dcache.ReadReq_hits::total       10875583                       # number of ReadReq hits
system.cpu1.dcache.ReadReq_miss_latency::.cpu1.data   1722727000                       # number of ReadReq miss cycles
system.cpu1.dcache.ReadReq_miss_latency::total   1722727000                       # number of ReadReq miss cycles
system.cpu1.dcache.ReadReq_miss_rate::.cpu1.data     0.001332                       # miss rate for ReadReq accesses
system.cpu1.dcache.ReadReq_miss_rate::total     0.001332                       # miss rate for ReadReq accesses
system.cpu1.dcache.ReadReq_misses::.cpu1.data        14508                       # number of ReadReq misses
system.cpu1.dcache.ReadReq_misses::total        14508                       # number of ReadReq misses
system.cpu1.dcache.ReadReq_mshr_miss_latency::.cpu1.data   1693711000                       # number of ReadReq MSHR miss cycles
system.cpu1.dcache.ReadReq_mshr_miss_latency::total   1693711000                       # number of ReadReq MSHR miss cycles
system.cpu1.dcache.ReadReq_mshr_miss_rate::.cpu1.data     0.001332                       # mshr miss rate for ReadReq accesses
system.cpu1.dcache.ReadReq_mshr_miss_rate::total     0.001332                       # mshr miss rate for ReadReq accesses
system.cpu1.dcache.ReadReq_mshr_misses::.cpu1.data        14508                       # number of ReadReq MSHR misses
system.cpu1.dcache.ReadReq_mshr_misses::total        14508                       # number of ReadReq MSHR misses
system.cpu1.dcache.WriteReq_accesses::.cpu1.data      7270947                       # number of WriteReq accesses(hits+misses)
system.cpu1.dcache.WriteReq_accesses::total      7270947                       # number of WriteReq accesses(hits+misses)
system.cpu1.dcache.WriteReq_avg_miss_latency::.cpu1.data 137418.794846                       # average WriteReq miss latency
system.cpu1.dcache.WriteReq_avg_miss_latency::total 137418.794846                       # average WriteReq miss latency
system.cpu1.dcache.WriteReq_avg_mshr_miss_latency::.cpu1.data 135418.794846                       # average WriteReq mshr miss latency
system.cpu1.dcache.WriteReq_avg_mshr_miss_latency::total 135418.794846                       # average WriteReq mshr miss latency
system.cpu1.dcache.WriteReq_hits::.cpu1.data      7219103                       # number of WriteReq hits
system.cpu1.dcache.WriteReq_hits::total       7219103                       # number of WriteReq hits
system.cpu1.dcache.WriteReq_miss_latency::.cpu1.data   7124340000                       # number of WriteReq miss cycles
system.cpu1.dcache.WriteReq_miss_latency::total   7124340000                       # number of WriteReq miss cycles
system.cpu1.dcache.WriteReq_miss_rate::.cpu1.data     0.007130                       # miss rate for WriteReq accesses
system.cpu1.dcache.WriteReq_miss_rate::total     0.007130                       # miss rate for WriteReq accesses
system.cpu1.dcache.WriteReq_misses::.cpu1.data        51844                       # number of WriteReq misses
system.cpu1.dcache.WriteReq_misses::total        51844                       # number of WriteReq misses
system.cpu1.dcache.WriteReq_mshr_miss_latency::.cpu1.data   7020652000                       # number of WriteReq MSHR miss cycles
system.cpu1.dcache.WriteReq_mshr_miss_latency::total   7020652000                       # number of WriteReq MSHR miss cycles
system.cpu1.dcache.WriteReq_mshr_miss_rate::.cpu1.data     0.007130                       # mshr miss rate for WriteReq accesses
system.cpu1.dcache.WriteReq_mshr_miss_rate::total     0.007130                       # mshr miss rate for WriteReq accesses
system.cpu1.dcache.WriteReq_mshr_misses::.cpu1.data        51844                       # number of WriteReq MSHR misses
system.cpu1.dcache.WriteReq_mshr_misses::total        51844                       # number of WriteReq MSHR misses
system.cpu1.dcache.avg_blocked_cycles::no_mshrs          nan                       # average number of cycles each access was blocked
system.cpu1.dcache.avg_blocked_cycles::no_targets          nan                       # average number of cycles each access was blocked
system.cpu1.dcache.blocked::no_mshrs                0                       # number of cycles access was blocked
system.cpu1.dcache.blocked::no_targets              0                       # number of cycles access was blocked
system.cpu1.dcache.blocked_cycles::no_mshrs            0                       # number of cycles access was blocked
system.cpu1.dcache.blocked_cycles::no_targets            0                       # number of cycles access was blocked
system.cpu1.dcache.demand_accesses::.cpu1.data     18161038                       # number of demand (read+write) accesses
system.cpu1.dcache.demand_accesses::total     18161038                       # number of demand (read+write) accesses
system.cpu1.dcache.demand_avg_miss_latency::.cpu1.data 133335.347842                       # average overall miss latency
system.cpu1.dcache.demand_avg_miss_latency::total 133335.347842                       # average overall miss latency
system.cpu1.dcache.demand_avg_mshr_miss_latency::.cpu1.data 131335.347842                       # average overall mshr miss latency
system.cpu1.dcache.demand_avg_mshr_miss_latency::total 131335.347842                       # average overall mshr miss latency
system.cpu1.dcache.demand_hits::.cpu1.data     18094686                       # number of demand (read+write) hits
system.cpu1.dcache.demand_hits::total        18094686                       # number of demand (read+write) hits
system.cpu1.dcache.demand_miss_latency::.cpu1.data   8847067000                       # number of demand (read+write) miss cycles
system.cpu1.dcache.demand_miss_latency::total   8847067000                       # number of demand (read+write) miss cycles
system.cpu1.dcache.demand_miss_rate::.cpu1.data     0.003654                       # miss rate for demand accesses
system.cpu1.dcache.demand_miss_rate::total     0.003654                       # miss rate for demand accesses
system.cpu1.dcache.demand_misses::.cpu1.data        66352                       # number of demand (read+write) misses
system.cpu1.dcache.demand_misses::total         66352                       # number of demand (read+write) misses
system.cpu1.dcache.demand_mshr_miss_latency::.cpu1.data   8714363000                       # number of demand (read+write) MSHR miss cycles
system.cpu1.dcache.demand_mshr_miss_latency::total   8714363000                       # number of demand (read+write) MSHR miss cycles
system.cpu1.dcache.demand_mshr_miss_rate::.cpu1.data     0.003654                       # mshr miss rate for demand accesses
system.cpu1.dcache.demand_mshr_miss_rate::total     0.003654                       # mshr miss rate for demand accesses
system.cpu1.dcache.demand_mshr_misses::.cpu1.data        66352                       # number of demand (read+write) MSHR misses
system.cpu1.dcache.demand_mshr_misses::total        66352                       # number of demand (read+write) MSHR misses
system.cpu1.dcache.overall_accesses::.cpu1.data     18161038                       # number of overall (read+write) accesses
system.cpu1.dcache.overall_accesses::total     18161038                       # number of overall (read+write) accesses
system.cpu1.dcache.overall_avg_miss_latency::.cpu1.data 133335.347842                       # average overall miss latency
system.cpu1.dcache.overall_avg_miss_latency::total 133335.347842                       # average overall miss latency
system.cpu1.dcache.overall_avg_mshr_miss_latency::.cpu1.data 131335.347842                       # average overall mshr miss latency
system.cpu1.dcache.overall_avg_mshr_miss_latency::total 131335.347842                       # average overall mshr miss latency
system.cpu1.dcache.overall_hits::.cpu1.data     18094686                       # number of overall hits
system.cpu1.dcache.overall_hits::total       18094686                       # number of overall hits
system.cpu1.dcache.overall_miss_latency::.cpu1.data   8847067000                       # number of overall miss cycles
system.cpu1.dcache.overall_miss_latency::total   8847067000                       # number of overall miss cycles
system.cpu1.dcache.overall_miss_rate::.cpu1.data     0.003654                       # miss rate for overall accesses
system.cpu1.dcache.overall_miss_rate::total     0.003654                       # miss rate for overall accesses
system.cpu1.dcache.overall_misses::.cpu1.data        66352                       # number of overall misses
system.cpu1.dcache.overall_misses::total        66352                       # number of overall misses
system.cpu1.dcache.overall_mshr_miss_latency::.cpu1.data   8714363000                       # number of overall MSHR miss cycles
system.cpu1.dcache.overall_mshr_miss_latency::total   8714363000                       # number of overall MSHR miss cycles
system.cpu1.dcache.overall_mshr_miss_rate::.cpu1.data     0.003654                       # mshr miss rate for overall accesses
system.cpu1.dcache.overall_mshr_miss_rate::total     0.003654                       # mshr miss rate for overall accesses
system.cpu1.dcache.overall_mshr_misses::.cpu1.data        66352                       # number of overall MSHR misses
system.cpu1.dcache.overall_mshr_misses::total        66352                       # number of overall MSHR misses
system.cpu1.dcache.pwrStateResidencyTicks::UNDEFINED 185785892000                       # Cumulative time (in ticks) in various power states
system.cpu1.dcache.replacements                 65328                       # number of replacements
system.cpu1.dcache.tags.age_task_id_blocks_1024::0            2                       # Occupied blocks per task id
system.cpu1.dcache.tags.age_task_id_blocks_1024::1           18                       # Occupied blocks per task id
system.cpu1.dcache.tags.age_task_id_blocks_1024::2          165                       # Occupied blocks per task id
system.cpu1.dcache.tags.age_task_id_blocks_1024::3          771                       # Occupied blocks per task id
system.cpu1.dcache.tags.age_task_id_blocks_1024::4           68                       # Occupied blocks per task id
system.cpu1.dcache.tags.avg_refs           273.707469                       # Average number of references to valid blocks.
system.cpu1.dcache.tags.data_accesses        36388428                       # Number of data accesses
system.cpu1.dcache.tags.occ_blocks::.cpu1.data  1020.558835                       # Average occupied blocks per requestor
system.cpu1.dcache.tags.occ_percent::.cpu1.data     0.996639                       # Average percentage of cache occupancy
system.cpu1.dcache.tags.occ_percent::total     0.996639                       # Average percentage of cache occupancy
system.cpu1.dcache.tags.occ_task_id_blocks::1024         1024                       # Occupied blocks per task id
system.cpu1.dcache.tags.occ_task_id_percent::1024            1                       # Percentage of cache occupancy per task id
system.cpu1.dcache.tags.pwrStateResidencyTicks::UNDEFINED 185785892000                       # Cumulative time (in ticks) in various power states
system.cpu1.dcache.tags.sampled_refs            66352                       # Sample count of references to valid blocks.
system.cpu1.dcache.tags.tag_accesses         36388428                       # Number of tag accesses
system.cpu1.dcache.tags.tagsinuse         1020.558835                       # Cycle average of tags in use
system.cpu1.dcache.tags.total_refs           18161038                       # Total number of references to valid blocks.
system.cpu1.dcache.tags.warmup_cycle           283000                       # Cycle when the warmup percentage was hit.
system.cpu1.dcache.writebacks::.writebacks        61451                       # number of writebacks
system.cpu1.dcache.writebacks::total            61451                       # number of writebacks
system.cpu1.dtb.rdAccesses                   10890091                       # TLB accesses on read requests
system.cpu1.dtb.rdMisses                         9245                       # TLB misses on read requests
system.cpu1.dtb.walker.pwrStateResidencyTicks::UNDEFINED 185785892000                       # Cumulative time (in ticks) in various power states
system.cpu1.dtb.wrAccesses                    7270947                       # TLB accesses on write requests
system.cpu1.dtb.wrMisses                          895                       # TLB misses on write requests
system.cpu1.icache.ReadReq_accesses::.cpu1.inst     67532757                       # number of ReadReq accesses(hits+misses)
system.cpu1.icache.ReadReq_accesses::total     67532757                       # number of ReadReq accesses(hits+misses)
system.cpu1.icache.ReadReq_avg_miss_latency::.cpu1.inst 27219.392301                       # average ReadReq miss latency
system.cpu1.icache.ReadReq_avg_miss_latency::total 27219.392301                       # average ReadReq miss latency
system.cpu1.icache.ReadReq_avg_mshr_miss_latency::.cpu1.inst 25219.392301                       # average ReadReq mshr miss latency
system.cpu1.icache.ReadReq_avg_mshr_miss_latency::total 25219.392301                       # average ReadReq mshr miss latency
system.cpu1.icache.ReadReq_hits::.cpu1.inst     67307152                       # number of ReadReq hits
system.cpu1.icache.ReadReq_hits::total       67307152                       # number of ReadReq hits
system.cpu1.icache.ReadReq_miss_latency::.cpu1.inst   6140831000                       # number of ReadReq miss cycles
system.cpu1.icache.ReadReq_miss_latency::total   6140831000                       # number of ReadReq miss cycles
system.cpu1.icache.ReadReq_miss_rate::.cpu1.inst     0.003341                       # miss rate for ReadReq accesses
system.cpu1.icache.ReadReq_miss_rate::total     0.003341                       # miss rate for ReadReq accesses
system.cpu1.icache.ReadReq_misses::.cpu1.inst       225605                       # number of ReadReq misses
system.cpu1.icache.ReadReq_misses::total       225605                       # number of ReadReq misses
system.cpu1.icache.ReadReq_mshr_miss_latency::.cpu1.inst   5689621000                       # number of ReadReq MSHR miss cycles
system.cpu1.icache.ReadReq_mshr_miss_latency::total   5689621000                       # number of ReadReq MSHR miss cycles
system.cpu1.icache.ReadReq_mshr_miss_rate::.cpu1.inst     0.003341                       # mshr miss rate for ReadReq accesses
system.cpu1.icache.ReadReq_mshr_miss_rate::total     0.003341                       # mshr miss rate for ReadReq accesses
system.cpu1.icache.ReadReq_mshr_misses::.cpu1.inst       225605                       # number of ReadReq MSHR misses
system.cpu1.icache.ReadReq_mshr_misses::total       225605                       # number of ReadReq MSHR misses
system.cpu1.icache.avg_blocked_cycles::no_mshrs          nan                       # average number of cycles each access was blocked
system.cpu1.icache.avg_blocked_cycles::no_targets          nan                       # average number of cycles each access was blocked
system.cpu1.icache.blocked::no_mshrs                0                       # number of cycles access was blocked
system.cpu1.icache.blocked::no_targets              0                       # number of cycles access was blocked
system.cpu1.icache.blocked_cycles::no_mshrs            0                       # number of cycles access was blocked
system.cpu1.icache.blocked_cycles::no_targets            0                       # number of cycles access was blocked
system.cpu1.icache.demand_accesses::.cpu1.inst     67532757                       # number of demand (read+write) accesses
system.cpu1.icache.demand_accesses::total     67532757                       # number of demand (read+write) accesses
system.cpu1.icache.demand_avg_miss_latency::.cpu1.inst 27219.392301                       # average overall miss latency
system.cpu1.icache.demand_avg_miss_latency::total 27219.392301                       # average overall miss latency
system.cpu1.icache.demand_avg_mshr_miss_latency::.cpu1.inst 25219.392301                       # average overall mshr miss latency
system.cpu1.icache.demand_avg_mshr_miss_latency::total 25219.392301                       # average overall mshr miss latency
system.cpu1.icache.demand_hits::.cpu1.inst     67307152                       # number of demand (read+write) hits
system.cpu1.icache.demand_hits::total        67307152                       # number of demand (read+write) hits
system.cpu1.icache.demand_miss_latency::.cpu1.inst   6140831000                       # number of demand (read+write) miss cycles
system.cpu1.icache.demand_miss_latency::total   6140831000                       # number of demand (read+write) miss cycles
system.cpu1.icache.demand_miss_rate::.cpu1.inst     0.003341                       # miss rate for demand accesses
system.cpu1.icache.demand_miss_rate::total     0.003341                       # miss rate for demand accesses
system.cpu1.icache.demand_misses::.cpu1.inst       225605                       # number of demand (read+write) misses
system.cpu1.icache.demand_misses::total        225605                       # number of demand (read+write) misses
system.cpu1.icache.demand_mshr_miss_latency::.cpu1.inst   5689621000                       # number of demand (read+write) MSHR miss cycles
system.cpu1.icache.demand_mshr_miss_latency::total   5689621000                       # number of demand (read+write) MSHR miss cycles
system.cpu1.icache.demand_mshr_miss_rate::.cpu1.inst     0.003341                       # mshr miss rate for demand accesses
system.cpu1.icache.demand_mshr_miss_rate::total     0.003341                       # mshr miss rate for demand accesses
system.cpu1.icache.demand_mshr_misses::.cpu1.inst       225605                       # number of demand (read+write) MSHR misses
system.cpu1.icache.demand_mshr_misses::total       225605                       # number of demand (read+write) MSHR misses
system.cpu1.icache.overall_accesses::.cpu1.inst     67532757                       # number of overall (read+write) accesses
system.cpu1.icache.overall_accesses::total     67532757                       # number of overall (read+write) accesses
system.cpu1.icache.overall_avg_miss_latency::.cpu1.inst 27219.392301                       # average overall miss latency
system.cpu1.icache.overall_avg_miss_latency::total 27219.392301                       # average overall miss latency
system.cpu1.icache.overall_avg_mshr_miss_latency::.cpu1.inst 25219.392301                       # average overall mshr miss latency
system.cpu1.icache.overall_avg_mshr_miss_latency::total 25219.392301                       # average overall mshr miss latency
system.cpu1.icache.overall_hits::.cpu1.inst     67307152                       # number of overall hits
system.cpu1.icache.overall_hits::total       67307152                       # number of overall hits
system.cpu1.icache.overall_miss_latency::.cpu1.inst   6140831000                       # number of overall miss cycles
system.cpu1.icache.overall_miss_latency::total   6140831000                       # number of overall miss cycles
system.cpu1.icache.overall_miss_rate::.cpu1.inst     0.003341                       # miss rate for overall accesses
system.cpu1.icache.overall_miss_rate::total     0.003341                       # miss rate for overall accesses
system.cpu1.icache.overall_misses::.cpu1.inst       225605                       # number of overall misses
system.cpu1.icache.overall_misses::total       225605                       # number of overall misses
system.cpu1.icache.overall_mshr_miss_latency::.cpu1.inst   5689621000                       # number of overall MSHR miss cycles
system.cpu1.icache.overall_mshr_miss_latency::total   5689621000                       # number of overall MSHR miss cycles
system.cpu1.icache.overall_mshr_miss_rate::.cpu1.inst     0.003341                       # mshr miss rate for overall accesses
system.cpu1.icache.overall_mshr_miss_rate::total     0.003341                       # mshr miss rate for overall accesses
system.cpu1.icache.overall_mshr_misses::.cpu1.inst       225605                       # number of overall MSHR misses
system.cpu1.icache.overall_mshr_misses::total       225605                       # number of overall MSHR misses
system.cpu1.icache.pwrStateResidencyTicks::UNDEFINED 185785892000                       # Cumulative time (in ticks) in various power states
system.cpu1.icache.replacements                225352                       # number of replacements
system.cpu1.icache.tags.age_task_id_blocks_1024::0            6                       # Occupied blocks per task id
system.cpu1.icache.tags.age_task_id_blocks_1024::3           10                       # Occupied blocks per task id
system.cpu1.icache.tags.age_task_id_blocks_1024::4          237                       # Occupied blocks per task id
system.cpu1.icache.tags.avg_refs           299.340693                       # Average number of references to valid blocks.
system.cpu1.icache.tags.data_accesses       135291119                       # Number of data accesses
system.cpu1.icache.tags.occ_blocks::.cpu1.inst   252.702360                       # Average occupied blocks per requestor
system.cpu1.icache.tags.occ_percent::.cpu1.inst     0.987119                       # Average percentage of cache occupancy
system.cpu1.icache.tags.occ_percent::total     0.987119                       # Average percentage of cache occupancy
system.cpu1.icache.tags.occ_task_id_blocks::1024          253                       # Occupied blocks per task id
system.cpu1.icache.tags.occ_task_id_percent::1024     0.988281                       # Percentage of cache occupancy per task id
system.cpu1.icache.tags.pwrStateResidencyTicks::UNDEFINED 185785892000                       # Cumulative time (in ticks) in various power states
system.cpu1.icache.tags.sampled_refs           225605                       # Sample count of references to valid blocks.
system.cpu1.icache.tags.tag_accesses        135291119                       # Number of tag accesses
system.cpu1.icache.tags.tagsinuse          252.702360                       # Cycle average of tags in use
system.cpu1.icache.tags.total_refs           67532757                       # Total number of references to valid blocks.
system.cpu1.icache.tags.warmup_cycle           156000                       # Cycle when the warmup percentage was hit.
system.cpu1.idle_fraction                           0                       # Percentage of idle cycles
system.cpu1.interrupts.clk_domain.clock         16000                       # Clock period in ticks
system.cpu1.interrupts.pwrStateResidencyTicks::UNDEFINED 185785892000                       # Cumulative time (in ticks) in various power states
system.cpu1.itb.rdAccesses                          0                       # TLB accesses on read requests
system.cpu1.itb.rdMisses                            0                       # TLB misses on read requests
system.cpu1.itb.walker.pwrStateResidencyTicks::UNDEFINED 185785892000                       # Cumulative time (in ticks) in various power states
system.cpu1.itb.wrAccesses                   67532757                       # TLB accesses on write requests
system.cpu1.itb.wrMisses                          137                       # TLB misses on write requests
system.cpu1.not_idle_fraction                       1                       # Percentage of non-idle cycles
system.cpu1.numCycles                       185785892                       # number of cpu cycles simulated
system.cpu1.numWorkItemsCompleted                   0                       # number of work items this cpu completed
system.cpu1.numWorkItemsStarted                     0                       # number of work items this cpu started
system.cpu1.num_busy_cycles                 185785892                       # Number of busy cycles
system.cpu1.num_cc_register_reads            57972012                       # number of times the CC registers were read
system.cpu1.num_cc_register_writes           29697329                       # number of times the CC registers were written
system.cpu1.num_conditional_control_insts      9153031                       # number of instructions that are conditional controls
system.cpu1.num_fp_alu_accesses               1221881                       # Number of float alu accesses
system.cpu1.num_fp_insts                      1221881                       # number of float instructions
system.cpu1.num_fp_register_reads             1373206                       # number of times the floating registers were read
system.cpu1.num_fp_register_writes             922386                       # number of times the floating registers were written
system.cpu1.num_func_calls                     950382                       # number of times a function call or return occured
system.cpu1.num_idle_cycles                         0                       # Number of idle cycles
system.cpu1.num_int_alu_accesses             92627556                       # Number of integer alu accesses
system.cpu1.num_int_insts                    92627556                       # number of integer instructions
system.cpu1.num_int_register_reads          179295760                       # number of times the integer registers were read
system.cpu1.num_int_register_writes          74014664                       # number of times the integer registers were written
system.cpu1.num_load_insts                   10884415                       # Number of load instructions
system.cpu1.num_mem_refs                     18155359                       # number of memory refs
system.cpu1.num_store_insts                   7270944                       # Number of store instructions
system.cpu1.num_vec_alu_accesses                    0                       # Number of vector alu accesses
system.cpu1.num_vec_insts                           0                       # number of vector instructions
system.cpu1.num_vec_register_reads                  0                       # number of times the vector registers were read
system.cpu1.num_vec_register_writes                 0                       # number of times the vector registers were written
system.cpu1.op_class::No_OpClass               166573      0.18%      0.18% # Class of executed instruction
system.cpu1.op_class::IntAlu                 74143285     79.41%     79.58% # Class of executed instruction
system.cpu1.op_class::IntMult                  223277      0.24%     79.82% # Class of executed instruction
system.cpu1.op_class::IntDiv                       21      0.00%     79.82% # Class of executed instruction
system.cpu1.op_class::FloatAdd                 117238      0.13%     79.95% # Class of executed instruction
system.cpu1.op_class::FloatCmp                      0      0.00%     79.95% # Class of executed instruction
system.cpu1.op_class::FloatCvt                      0      0.00%     79.95% # Class of executed instruction
system.cpu1.op_class::FloatMult                     0      0.00%     79.95% # Class of executed instruction
system.cpu1.op_class::FloatMultAcc                  0      0.00%     79.95% # Class of executed instruction
system.cpu1.op_class::FloatDiv                      0      0.00%     79.95% # Class of executed instruction
system.cpu1.op_class::FloatMisc                     0      0.00%     79.95% # Class of executed instruction
system.cpu1.op_class::FloatSqrt                     0      0.00%     79.95% # Class of executed instruction
system.cpu1.op_class::SimdAdd                     374      0.00%     79.95% # Class of executed instruction
system.cpu1.op_class::SimdAddAcc                    0      0.00%     79.95% # Class of executed instruction
system.cpu1.op_class::SimdAlu                     100      0.00%     79.95% # Class of executed instruction
system.cpu1.op_class::SimdCmp                       0      0.00%     79.95% # Class of executed instruction
system.cpu1.op_class::SimdCvt                  110354      0.12%     80.07% # Class of executed instruction
system.cpu1.op_class::SimdMisc                 455609      0.49%     80.56% # Class of executed instruction
system.cpu1.op_class::SimdMult                      0      0.00%     80.56% # Class of executed instruction
system.cpu1.op_class::SimdMultAcc                   0      0.00%     80.56% # Class of executed instruction
system.cpu1.op_class::SimdShift                   186      0.00%     80.56% # Class of executed instruction
system.cpu1.op_class::SimdShiftAcc                  0      0.00%     80.56% # Class of executed instruction
system.cpu1.op_class::SimdDiv                       0      0.00%     80.56% # Class of executed instruction
system.cpu1.op_class::SimdSqrt                      0      0.00%     80.56% # Class of executed instruction
system.cpu1.op_class::SimdFloatAdd                  0      0.00%     80.56% # Class of executed instruction
system.cpu1.op_class::SimdFloatAlu                  0      0.00%     80.56% # Class of executed instruction
system.cpu1.op_class::SimdFloatCmp                  0      0.00%     80.56% # Class of executed instruction
system.cpu1.op_class::SimdFloatCvt                  0      0.00%     80.56% # Class of executed instruction
system.cpu1.op_class::SimdFloatDiv                  0      0.00%     80.56% # Class of executed instruction
system.cpu1.op_class::SimdFloatMisc                 0      0.00%     80.56% # Class of executed instruction
system.cpu1.op_class::SimdFloatMult                 0      0.00%     80.56% # Class of executed instruction
system.cpu1.op_class::SimdFloatMultAcc              0      0.00%     80.56% # Class of executed instruction
system.cpu1.op_class::SimdFloatSqrt                 0      0.00%     80.56% # Class of executed instruction
system.cpu1.op_class::SimdReduceAdd                 0      0.00%     80.56% # Class of executed instruction
system.cpu1.op_class::SimdReduceAlu                 0      0.00%     80.56% # Class of executed instruction
system.cpu1.op_class::SimdReduceCmp                 0      0.00%     80.56% # Class of executed instruction
system.cpu1.op_class::SimdFloatReduceAdd            0      0.00%     80.56% # Class of executed instruction
system.cpu1.op_class::SimdFloatReduceCmp            0      0.00%     80.56% # Class of executed instruction
system.cpu1.op_class::SimdAes                       0      0.00%     80.56% # Class of executed instruction
system.cpu1.op_class::SimdAesMix                    0      0.00%     80.56% # Class of executed instruction
system.cpu1.op_class::SimdSha1Hash                  0      0.00%     80.56% # Class of executed instruction
system.cpu1.op_class::SimdSha1Hash2                 0      0.00%     80.56% # Class of executed instruction
system.cpu1.op_class::SimdSha256Hash                0      0.00%     80.56% # Class of executed instruction
system.cpu1.op_class::SimdSha256Hash2               0      0.00%     80.56% # Class of executed instruction
system.cpu1.op_class::SimdShaSigma2                 0      0.00%     80.56% # Class of executed instruction
system.cpu1.op_class::SimdShaSigma3                 0      0.00%     80.56% # Class of executed instruction
system.cpu1.op_class::SimdPredAlu                   0      0.00%     80.56% # Class of executed instruction
system.cpu1.op_class::MemRead                10585415     11.34%     91.89% # Class of executed instruction
system.cpu1.op_class::MemWrite                7081743      7.58%     99.48% # Class of executed instruction
system.cpu1.op_class::FloatMemRead             299000      0.32%     99.80% # Class of executed instruction
system.cpu1.op_class::FloatMemWrite            189201      0.20%    100.00% # Class of executed instruction
system.cpu1.op_class::IprAccess                     0      0.00%    100.00% # Class of executed instruction
system.cpu1.op_class::InstPrefetch                  0      0.00%    100.00% # Class of executed instruction
system.cpu1.op_class::total                  93372376                       # Class of executed instruction
system.cpu1.pwrStateResidencyTicks::ON   185785892000                       # Cumulative time (in ticks) in various power states
system.cpu1.workload.numSyscalls                   56                       # Number of system calls
system.cpu2.Branches                         11270706                       # Number of branches fetched
system.cpu2.committedInsts                   49995762                       # Number of instructions committed
system.cpu2.committedOps                     93408414                       # Number of ops (including micro ops) committed
system.cpu2.dcache.ReadReq_accesses::.cpu2.data     10894137                       # number of ReadReq accesses(hits+misses)
system.cpu2.dcache.ReadReq_accesses::total     10894137                       # number of ReadReq accesses(hits+misses)
system.cpu2.dcache.ReadReq_avg_miss_latency::.cpu2.data 119576.503120                       # average ReadReq miss latency
system.cpu2.dcache.ReadReq_avg_miss_latency::total 119576.503120                       # average ReadReq miss latency
system.cpu2.dcache.ReadReq_avg_mshr_miss_latency::.cpu2.data 117576.503120                       # average ReadReq mshr miss latency
system.cpu2.dcache.ReadReq_avg_mshr_miss_latency::total 117576.503120                       # average ReadReq mshr miss latency
system.cpu2.dcache.ReadReq_hits::.cpu2.data     10880033                       # number of ReadReq hits
system.cpu2.dcache.ReadReq_hits::total       10880033                       # number of ReadReq hits
system.cpu2.dcache.ReadReq_miss_latency::.cpu2.data   1686507000                       # number of ReadReq miss cycles
system.cpu2.dcache.ReadReq_miss_latency::total   1686507000                       # number of ReadReq miss cycles
system.cpu2.dcache.ReadReq_miss_rate::.cpu2.data     0.001295                       # miss rate for ReadReq accesses
system.cpu2.dcache.ReadReq_miss_rate::total     0.001295                       # miss rate for ReadReq accesses
system.cpu2.dcache.ReadReq_misses::.cpu2.data        14104                       # number of ReadReq misses
system.cpu2.dcache.ReadReq_misses::total        14104                       # number of ReadReq misses
system.cpu2.dcache.ReadReq_mshr_miss_latency::.cpu2.data   1658299000                       # number of ReadReq MSHR miss cycles
system.cpu2.dcache.ReadReq_mshr_miss_latency::total   1658299000                       # number of ReadReq MSHR miss cycles
system.cpu2.dcache.ReadReq_mshr_miss_rate::.cpu2.data     0.001295                       # mshr miss rate for ReadReq accesses
system.cpu2.dcache.ReadReq_mshr_miss_rate::total     0.001295                       # mshr miss rate for ReadReq accesses
system.cpu2.dcache.ReadReq_mshr_misses::.cpu2.data        14104                       # number of ReadReq MSHR misses
system.cpu2.dcache.ReadReq_mshr_misses::total        14104                       # number of ReadReq MSHR misses
system.cpu2.dcache.WriteReq_accesses::.cpu2.data      7273686                       # number of WriteReq accesses(hits+misses)
system.cpu2.dcache.WriteReq_accesses::total      7273686                       # number of WriteReq accesses(hits+misses)
system.cpu2.dcache.WriteReq_avg_miss_latency::.cpu2.data 136787.137122                       # average WriteReq miss latency
system.cpu2.dcache.WriteReq_avg_miss_latency::total 136787.137122                       # average WriteReq miss latency
system.cpu2.dcache.WriteReq_avg_mshr_miss_latency::.cpu2.data 134787.137122                       # average WriteReq mshr miss latency
system.cpu2.dcache.WriteReq_avg_mshr_miss_latency::total 134787.137122                       # average WriteReq mshr miss latency
system.cpu2.dcache.WriteReq_hits::.cpu2.data      7221878                       # number of WriteReq hits
system.cpu2.dcache.WriteReq_hits::total       7221878                       # number of WriteReq hits
system.cpu2.dcache.WriteReq_miss_latency::.cpu2.data   7086668000                       # number of WriteReq miss cycles
system.cpu2.dcache.WriteReq_miss_latency::total   7086668000                       # number of WriteReq miss cycles
system.cpu2.dcache.WriteReq_miss_rate::.cpu2.data     0.007123                       # miss rate for WriteReq accesses
system.cpu2.dcache.WriteReq_miss_rate::total     0.007123                       # miss rate for WriteReq accesses
system.cpu2.dcache.WriteReq_misses::.cpu2.data        51808                       # number of WriteReq misses
system.cpu2.dcache.WriteReq_misses::total        51808                       # number of WriteReq misses
system.cpu2.dcache.WriteReq_mshr_miss_latency::.cpu2.data   6983052000                       # number of WriteReq MSHR miss cycles
system.cpu2.dcache.WriteReq_mshr_miss_latency::total   6983052000                       # number of WriteReq MSHR miss cycles
system.cpu2.dcache.WriteReq_mshr_miss_rate::.cpu2.data     0.007123                       # mshr miss rate for WriteReq accesses
system.cpu2.dcache.WriteReq_mshr_miss_rate::total     0.007123                       # mshr miss rate for WriteReq accesses
system.cpu2.dcache.WriteReq_mshr_misses::.cpu2.data        51808                       # number of WriteReq MSHR misses
system.cpu2.dcache.WriteReq_mshr_misses::total        51808                       # number of WriteReq MSHR misses
system.cpu2.dcache.avg_blocked_cycles::no_mshrs          nan                       # average number of cycles each access was blocked
system.cpu2.dcache.avg_blocked_cycles::no_targets          nan                       # average number of cycles each access was blocked
system.cpu2.dcache.blocked::no_mshrs                0                       # number of cycles access was blocked
system.cpu2.dcache.blocked::no_targets              0                       # number of cycles access was blocked
system.cpu2.dcache.blocked_cycles::no_mshrs            0                       # number of cycles access was blocked
system.cpu2.dcache.blocked_cycles::no_targets            0                       # number of cycles access was blocked
system.cpu2.dcache.demand_accesses::.cpu2.data     18167823                       # number of demand (read+write) accesses
system.cpu2.dcache.demand_accesses::total     18167823                       # number of demand (read+write) accesses
system.cpu2.dcache.demand_avg_miss_latency::.cpu2.data 133104.366428                       # average overall miss latency
system.cpu2.dcache.demand_avg_miss_latency::total 133104.366428                       # average overall miss latency
system.cpu2.dcache.demand_avg_mshr_miss_latency::.cpu2.data 131104.366428                       # average overall mshr miss latency
system.cpu2.dcache.demand_avg_mshr_miss_latency::total 131104.366428                       # average overall mshr miss latency
system.cpu2.dcache.demand_hits::.cpu2.data     18101911                       # number of demand (read+write) hits
system.cpu2.dcache.demand_hits::total        18101911                       # number of demand (read+write) hits
system.cpu2.dcache.demand_miss_latency::.cpu2.data   8773175000                       # number of demand (read+write) miss cycles
system.cpu2.dcache.demand_miss_latency::total   8773175000                       # number of demand (read+write) miss cycles
system.cpu2.dcache.demand_miss_rate::.cpu2.data     0.003628                       # miss rate for demand accesses
system.cpu2.dcache.demand_miss_rate::total     0.003628                       # miss rate for demand accesses
system.cpu2.dcache.demand_misses::.cpu2.data        65912                       # number of demand (read+write) misses
system.cpu2.dcache.demand_misses::total         65912                       # number of demand (read+write) misses
system.cpu2.dcache.demand_mshr_miss_latency::.cpu2.data   8641351000                       # number of demand (read+write) MSHR miss cycles
system.cpu2.dcache.demand_mshr_miss_latency::total   8641351000                       # number of demand (read+write) MSHR miss cycles
system.cpu2.dcache.demand_mshr_miss_rate::.cpu2.data     0.003628                       # mshr miss rate for demand accesses
system.cpu2.dcache.demand_mshr_miss_rate::total     0.003628                       # mshr miss rate for demand accesses
system.cpu2.dcache.demand_mshr_misses::.cpu2.data        65912                       # number of demand (read+write) MSHR misses
system.cpu2.dcache.demand_mshr_misses::total        65912                       # number of demand (read+write) MSHR misses
system.cpu2.dcache.overall_accesses::.cpu2.data     18167823                       # number of overall (read+write) accesses
system.cpu2.dcache.overall_accesses::total     18167823                       # number of overall (read+write) accesses
system.cpu2.dcache.overall_avg_miss_latency::.cpu2.data 133104.366428                       # average overall miss latency
system.cpu2.dcache.overall_avg_miss_latency::total 133104.366428                       # average overall miss latency
system.cpu2.dcache.overall_avg_mshr_miss_latency::.cpu2.data 131104.366428                       # average overall mshr miss latency
system.cpu2.dcache.overall_avg_mshr_miss_latency::total 131104.366428                       # average overall mshr miss latency
system.cpu2.dcache.overall_hits::.cpu2.data     18101911                       # number of overall hits
system.cpu2.dcache.overall_hits::total       18101911                       # number of overall hits
system.cpu2.dcache.overall_miss_latency::.cpu2.data   8773175000                       # number of overall miss cycles
system.cpu2.dcache.overall_miss_latency::total   8773175000                       # number of overall miss cycles
system.cpu2.dcache.overall_miss_rate::.cpu2.data     0.003628                       # miss rate for overall accesses
system.cpu2.dcache.overall_miss_rate::total     0.003628                       # miss rate for overall accesses
system.cpu2.dcache.overall_misses::.cpu2.data        65912                       # number of overall misses
system.cpu2.dcache.overall_misses::total        65912                       # number of overall misses
system.cpu2.dcache.overall_mshr_miss_latency::.cpu2.data   8641351000                       # number of overall MSHR miss cycles
system.cpu2.dcache.overall_mshr_miss_latency::total   8641351000                       # number of overall MSHR miss cycles
system.cpu2.dcache.overall_mshr_miss_rate::.cpu2.data     0.003628                       # mshr miss rate for overall accesses
system.cpu2.dcache.overall_mshr_miss_rate::total     0.003628                       # mshr miss rate for overall accesses
system.cpu2.dcache.overall_mshr_misses::.cpu2.data        65912                       # number of overall MSHR misses
system.cpu2.dcache.overall_mshr_misses::total        65912                       # number of overall MSHR misses
system.cpu2.dcache.pwrStateResidencyTicks::UNDEFINED 185785892000                       # Cumulative time (in ticks) in various power states
system.cpu2.dcache.replacements                 64888                       # number of replacements
system.cpu2.dcache.tags.age_task_id_blocks_1024::0            1                       # Occupied blocks per task id
[...]
system.mem_ctrl.wrPerTurnAround::mean       17.592799                       # Writes before turning the bus around for reads
system.mem_ctrl.wrPerTurnAround::gmean      17.548923                       # Writes before turning the bus around for reads
system.mem_ctrl.wrPerTurnAround::stdev       1.253724                       # Writes before turning the bus around for reads
system.mem_ctrl.wrPerTurnAround::16             15425     29.20%     29.20% # Writes before turning the bus around for reads
system.mem_ctrl.wrPerTurnAround::17              3151      5.96%     35.16% # Writes before turning the bus around for reads
system.mem_ctrl.wrPerTurnAround::18             26601     50.35%     85.52% # Writes before turning the bus around for reads
system.mem_ctrl.wrPerTurnAround::19              4265      8.07%     93.59% # Writes before turning the bus around for reads
system.mem_ctrl.wrPerTurnAround::20              2536      4.80%     98.39% # Writes before turning the bus around for reads
system.mem_ctrl.wrPerTurnAround::21               489      0.93%     99.31% # Writes before turning the bus around for reads
system.mem_ctrl.wrPerTurnAround::22               207      0.39%     99.71% # Writes before turning the bus around for reads
system.mem_ctrl.wrPerTurnAround::23                95      0.18%     99.89% # Writes before turning the bus around for reads
system.mem_ctrl.wrPerTurnAround::24                39      0.07%     99.96% # Writes before turning the bus around for reads
system.mem_ctrl.wrPerTurnAround::25                20      0.04%    100.00% # Writes before turning the bus around for reads
system.mem_ctrl.wrPerTurnAround::26                 1      0.00%    100.00% # Writes before turning the bus around for reads
system.mem_ctrl.wrPerTurnAround::total          52829                       # Writes before turning the bus around for reads
system.mem_ctrl.wrQLenPdf::0                        1                       # What write queue length does an incoming req see
system.mem_ctrl.wrQLenPdf::1                        1                       # What write queue length does an incoming req see
system.mem_ctrl.wrQLenPdf::2                        1                       # What write queue length does an incoming req see
system.mem_ctrl.wrQLenPdf::3                        1                       # What write queue length does an incoming req see
system.mem_ctrl.wrQLenPdf::4                        1                       # What write queue length does an incoming req see
system.mem_ctrl.wrQLenPdf::5                        1                       # What write queue length does an incoming req see
system.mem_ctrl.wrQLenPdf::6                        1                       # What write queue length does an incoming req see
system.mem_ctrl.wrQLenPdf::7                        1                       # What write queue length does an incoming req see
system.mem_ctrl.wrQLenPdf::8                        1                       # What write queue length does an incoming req see
system.mem_ctrl.wrQLenPdf::9                        1                       # What write queue length does an incoming req see
system.mem_ctrl.wrQLenPdf::10                       1                       # What write queue length does an incoming req see
system.mem_ctrl.wrQLenPdf::11                       1                       # What write queue length does an incoming req see
system.mem_ctrl.wrQLenPdf::12                       1                       # What write queue length does an incoming req see
system.mem_ctrl.wrQLenPdf::13                       1                       # What write queue length does an incoming req see
system.mem_ctrl.wrQLenPdf::14                       1                       # What write queue length does an incoming req see
system.mem_ctrl.wrQLenPdf::15                   33286                       # What write queue length does an incoming req see
system.mem_ctrl.wrQLenPdf::16                   36893                       # What write queue length does an incoming req see
system.mem_ctrl.wrQLenPdf::17                   48263                       # What write queue length does an incoming req see
system.mem_ctrl.wrQLenPdf::18                   51829                       # What write queue length does an incoming req see
system.mem_ctrl.wrQLenPdf::19                   53085                       # What write queue length does an incoming req see
system.mem_ctrl.wrQLenPdf::20                   53653                       # What write queue length does an incoming req see
system.mem_ctrl.wrQLenPdf::21                   54093                       # What write queue length does an incoming req see
system.mem_ctrl.wrQLenPdf::22                   54330                       # What write queue length does an incoming req see
system.mem_ctrl.wrQLenPdf::23                   54257                       # What write queue length does an incoming req see
system.mem_ctrl.wrQLenPdf::24                   54147                       # What write queue length does an incoming req see
system.mem_ctrl.wrQLenPdf::25                   53796                       # What write queue length does an incoming req see
system.mem_ctrl.wrQLenPdf::26                   55047                       # What write queue length does an incoming req see
system.mem_ctrl.wrQLenPdf::27                   54061                       # What write queue length does an incoming req see
system.mem_ctrl.wrQLenPdf::28                   54457                       # What write queue length does an incoming req see
system.mem_ctrl.wrQLenPdf::29                   58439                       # What write queue length does an incoming req see
system.mem_ctrl.wrQLenPdf::30                   53466                       # What write queue length does an incoming req see
system.mem_ctrl.wrQLenPdf::31                   53072                       # What write queue length does an incoming req see
system.mem_ctrl.wrQLenPdf::32                   53038                       # What write queue length does an incoming req see
system.mem_ctrl.wrQLenPdf::33                     164                       # What write queue length does an incoming req see
system.mem_ctrl.wrQLenPdf::34                      46                       # What write queue length does an incoming req see
system.mem_ctrl.wrQLenPdf::35                       5                       # What write queue length does an incoming req see
system.mem_ctrl.wrQLenPdf::36                       1                       # What write queue length does an incoming req see
system.mem_ctrl.wrQLenPdf::37                       0                       # What write queue length does an incoming req see
system.mem_ctrl.wrQLenPdf::38                       0                       # What write queue length does an incoming req see
system.mem_ctrl.wrQLenPdf::39                       0                       # What write queue length does an incoming req see
system.mem_ctrl.wrQLenPdf::40                       0                       # What write queue length does an incoming req see
system.mem_ctrl.wrQLenPdf::41                       0                       # What write queue length does an incoming req see
system.mem_ctrl.wrQLenPdf::42                       0                       # What write queue length does an incoming req see
system.mem_ctrl.wrQLenPdf::43                       0                       # What write queue length does an incoming req see
system.mem_ctrl.wrQLenPdf::44                       0                       # What write queue length does an incoming req see
system.mem_ctrl.wrQLenPdf::45                       0                       # What write queue length does an incoming req see
system.mem_ctrl.wrQLenPdf::46                       0                       # What write queue length does an incoming req see
system.mem_ctrl.wrQLenPdf::47                       0                       # What write queue length does an incoming req see
system.mem_ctrl.wrQLenPdf::48                       0                       # What write queue length does an incoming req see
system.mem_ctrl.wrQLenPdf::49                       0                       # What write queue length does an incoming req see
system.mem_ctrl.wrQLenPdf::50                       0                       # What write queue length does an incoming req see
system.mem_ctrl.wrQLenPdf::51                       0                       # What write queue length does an incoming req see
system.mem_ctrl.wrQLenPdf::52                       0                       # What write queue length does an incoming req see
system.mem_ctrl.wrQLenPdf::53                       0                       # What write queue length does an incoming req see
system.mem_ctrl.wrQLenPdf::54                       0                       # What write queue length does an incoming req see
system.mem_ctrl.wrQLenPdf::55                       0                       # What write queue length does an incoming req see
system.mem_ctrl.wrQLenPdf::56                       0                       # What write queue length does an incoming req see
system.mem_ctrl.wrQLenPdf::57                       0                       # What write queue length does an incoming req see
system.mem_ctrl.wrQLenPdf::58                       0                       # What write queue length does an incoming req see
system.mem_ctrl.wrQLenPdf::59                       0                       # What write queue length does an incoming req see
system.mem_ctrl.wrQLenPdf::60                       0                       # What write queue length does an incoming req see
system.mem_ctrl.wrQLenPdf::61                       0                       # What write queue length does an incoming req see
system.mem_ctrl.wrQLenPdf::62                       0                       # What write queue length does an incoming req see
system.mem_ctrl.wrQLenPdf::63                       0                       # What write queue length does an incoming req see
system.mem_ctrl.writeBursts                    929443                       # Number of DRAM write bursts, including those merged in the write queue
system.mem_ctrl.writePktSize::0                     0                       # Write request sizes (log2)
system.mem_ctrl.writePktSize::1                     0                       # Write request sizes (log2)
system.mem_ctrl.writePktSize::2                     0                       # Write request sizes (log2)
system.mem_ctrl.writePktSize::3                     0                       # Write request sizes (log2)
system.mem_ctrl.writePktSize::4                     0                       # Write request sizes (log2)
system.mem_ctrl.writePktSize::5                     0                       # Write request sizes (log2)
system.mem_ctrl.writePktSize::6                929443                       # Write request sizes (log2)
system.mem_ctrl.writeReqs                      929443                       # Number of write requests accepted
system.mem_ctrl.writeRowHitRate                 64.52                       # Row buffer hit rate for writes
system.mem_ctrl.writeRowHits                   599639                       # Number of row buffer hits during writes
system.mem_ctrl_0.actBackEnergy           79075894230                       # Energy for active background per rank (pJ)
system.mem_ctrl_0.actEnergy                4416725460                       # Energy for activate commands per rank (pJ)
system.mem_ctrl_0.actPowerDownEnergy                0                       # Energy for active power-down per rank (pJ)
system.mem_ctrl_0.averagePower             598.029335                       # Core power per rank (mW)
system.mem_ctrl_0.memoryStateTime::IDLE   10917032015                       # Time in different power states
system.mem_ctrl_0.memoryStateTime::REF     6203600000                       # Time in different power states
system.mem_ctrl_0.memoryStateTime::SREF             0                       # Time in different power states
system.mem_ctrl_0.memoryStateTime::PRE_PDN            0                       # Time in different power states
system.mem_ctrl_0.memoryStateTime::ACT   168665259985                       # Time in different power states
system.mem_ctrl_0.memoryStateTime::ACT_PDN            0                       # Time in different power states
system.mem_ctrl_0.preBackEnergy            4751556000                       # Energy for precharge background per rank (pJ)
system.mem_ctrl_0.preEnergy                2347518690                       # Energy for precharge commands per rank (pJ)
system.mem_ctrl_0.prePowerDownEnergy                0                       # Energy for precharge power-down per rank (pJ)
system.mem_ctrl_0.readEnergy               3423630000                       # Energy for read commands per rank (pJ)
system.mem_ctrl_0.refreshEnergy          14665310400.000002                       # Energy for refresh commands per rank (pJ)
system.mem_ctrl_0.selfRefreshEnergy                 0                       # Energy for self refresh per rank (pJ)
system.mem_ctrl_0.totalEnergy            111105413520                       # Total energy per rank (pJ)
system.mem_ctrl_0.totalIdleTime                     0                       # Total Idle time Per DRAM Rank
system.mem_ctrl_0.writeEnergy              2424778740                       # Energy for write commands per rank (pJ)
system.mem_ctrl_1.actBackEnergy           79592779920                       # Energy for active background per rank (pJ)
system.mem_ctrl_1.actEnergy                4458023220                       # Energy for activate commands per rank (pJ)
system.mem_ctrl_1.actPowerDownEnergy                0                       # Energy for active power-down per rank (pJ)
system.mem_ctrl_1.averagePower             599.091262                       # Core power per rank (mW)
system.mem_ctrl_1.memoryStateTime::IDLE    9799782234                       # Time in different power states
system.mem_ctrl_1.memoryStateTime::REF     6203600000                       # Time in different power states
system.mem_ctrl_1.memoryStateTime::SREF             0                       # Time in different power states
system.mem_ctrl_1.memoryStateTime::PRE_PDN            0                       # Time in different power states
system.mem_ctrl_1.memoryStateTime::ACT   169782509766                       # Time in different power states
system.mem_ctrl_1.memoryStateTime::ACT_PDN            0                       # Time in different power states
system.mem_ctrl_1.preBackEnergy            4316283840                       # Energy for precharge background per rank (pJ)
system.mem_ctrl_1.preEnergy                2369480355                       # Energy for precharge commands per rank (pJ)
system.mem_ctrl_1.prePowerDownEnergy                0                       # Energy for precharge power-down per rank (pJ)
system.mem_ctrl_1.readEnergy               3474038400                       # Energy for read commands per rank (pJ)
system.mem_ctrl_1.refreshEnergy          14665310400.000002                       # Energy for refresh commands per rank (pJ)
system.mem_ctrl_1.selfRefreshEnergy                 0                       # Energy for self refresh per rank (pJ)
system.mem_ctrl_1.totalEnergy            111302704575                       # Total energy per rank (pJ)
system.mem_ctrl_1.totalIdleTime                     0                       # Total Idle time Per DRAM Rank
system.mem_ctrl_1.writeEnergy              2426788440                       # Energy for write commands per rank (pJ)
system.membus.pkt_count_system.l2cache.mem_side::system.mem_ctrl.port      2890254                       # Packet count per connected master and slave (bytes)
system.membus.pkt_count_system.l2cache.mem_side::total      2890254                       # Packet count per connected master and slave (bytes)
system.membus.pkt_count::total                2890254                       # Packet count per connected master and slave (bytes)
system.membus.pkt_size_system.l2cache.mem_side::system.mem_ctrl.port    121313664                       # Cumulative packet size per connected master and slave (bytes)
system.membus.pkt_size_system.l2cache.mem_side::total    121313664                       # Cumulative packet size per connected master and slave (bytes)
system.membus.pkt_size::total               121313664                       # Cumulative packet size per connected master and slave (bytes)
system.membus.pwrStateResidencyTicks::UNDEFINED 185785892000                       # Cumulative time (in ticks) in various power states
system.membus.reqLayer8.occupancy          5750386448                       # Layer occupancy (ticks)
system.membus.reqLayer8.utilization               3.1                       # Layer utilization (%)
system.membus.respLayer0.occupancy         5472979338                       # Layer occupancy (ticks)
system.membus.respLayer0.utilization              2.9                       # Layer utilization (%)
system.membus.snoopTraffic                          0                       # Total snoop traffic (bytes)
system.membus.snoop_fanout::samples            966083                       # Request fanout histogram
system.membus.snoop_fanout::mean                    0                       # Request fanout histogram
system.membus.snoop_fanout::stdev                   0                       # Request fanout histogram
system.membus.snoop_fanout::underflows              0      0.00%      0.00% # Request fanout histogram
system.membus.snoop_fanout::0                  966083    100.00%    100.00% # Request fanout histogram
system.membus.snoop_fanout::1                       0      0.00%    100.00% # Request fanout histogram
system.membus.snoop_fanout::overflows               0      0.00%    100.00% # Request fanout histogram
system.membus.snoop_fanout::min_value               0                       # Request fanout histogram
system.membus.snoop_fanout::max_value               0                       # Request fanout histogram
system.membus.snoop_fanout::total              966083                       # Request fanout histogram
system.membus.snoop_filter.hit_multi_requests            0                       # Number of requests hitting in the snoop filter with multiple (>1) holders of the requested data.
system.membus.snoop_filter.hit_multi_snoops            0                       # Number of snoops hitting in the snoop filter with multiple (>1) holders of the requested data.
system.membus.snoop_filter.hit_single_requests       958088                       # Number of requests hitting in the snoop filter with a single holder of the requested data.
system.membus.snoop_filter.hit_single_snoops            0                       # Number of snoops hitting in the snoop filter with a single holder of the requested data.
system.membus.snoop_filter.tot_requests       1924171                       # Total number of requests made to the snoop filter.
system.membus.snoop_filter.tot_snoops               0                       # Total number of snoops made to the snoop filter.
system.membus.snoops                                0                       # Total snoops (count)
system.membus.trans_dist::ReadResp             809113                       # Transaction distribution
system.membus.trans_dist::WritebackDirty       929443                       # Transaction distribution
system.membus.trans_dist::CleanEvict            28645                       # Transaction distribution
system.membus.trans_dist::ReadExReq            156970                       # Transaction distribution
system.membus.trans_dist::ReadExResp           156970                       # Transaction distribution
system.membus.trans_dist::ReadSharedReq        809113                       # Transaction distribution

---------- End Simulation Statistics   ----------
