
---------- Begin Simulation Statistics ----------
final_tick                               184991687000                       # Number of ticks from beginning of simulation (restored from checkpoints and never reset)
host_inst_rate                                 385473                       # Simulator instruction rate (inst/s)
host_mem_usage                                 742208                       # Number of bytes of host memory used
host_op_rate                                   720186                       # Simulator op (including micro ops) rate (op/s)
host_seconds                                   518.59                       # Real time elapsed on the host
host_tick_rate                              356723548                       # Simulator tick rate (ticks/s)
sim_freq                                 1000000000000                       # Frequency of simulated ticks
sim_insts                                   199900501                       # Number of instructions simulated
sim_ops                                     373477820                       # Number of ops (including micro ops) simulated
sim_seconds                                  0.184992                       # Number of seconds simulated
sim_ticks                                184991687000                       # Number of ticks simulated
system.clk_domain.clock                          1000                       # Clock period in ticks
system.clk_domain.voltage_domain.voltage            1                       # Voltage in Volts
system.cpu0.Branches                         11267753                       # Number of branches fetched
system.cpu0.committedInsts                   49983058                       # Number of instructions committed
system.cpu0.committedOps                     93384431                       # Number of ops (including micro ops) committed
system.cpu0.dcache.ReadReq_accesses::.cpu0.data     10891444                       # number of ReadReq accesses(hits+misses)
system.cpu0.dcache.ReadReq_accesses::total     10891444                       # number of ReadReq accesses(hits+misses)
system.cpu0.dcache.ReadReq_avg_miss_latency::.cpu0.data 108203.588030                       # average ReadReq miss latency
system.cpu0.dcache.ReadReq_avg_miss_latency::total 108203.588030                       # average ReadReq miss latency
system.cpu0.dcache.ReadReq_avg_mshr_miss_latency::.cpu0.data 106203.588030                       # average ReadReq mshr miss latency
system.cpu0.dcache.ReadReq_avg_mshr_miss_latency::total 106203.588030                       # average ReadReq mshr miss latency
system.cpu0.dcache.ReadReq_hits::.cpu0.data     10877676                       # number of ReadReq hits
system.cpu0.dcache.ReadReq_hits::total       10877676                       # number of ReadReq hits
system.cpu0.dcache.ReadReq_miss_latency::.cpu0.data   1489747000                       # number of ReadReq miss cycles
system.cpu0.dcache.ReadReq_miss_latency::total   1489747000                       # number of ReadReq miss cycles
system.cpu0.dcache.ReadReq_miss_rate::.cpu0.data     0.001264                       # miss rate for ReadReq accesses
system.cpu0.dcache.ReadReq_miss_rate::total     0.001264                       # miss rate for ReadReq accesses
system.cpu0.dcache.ReadReq_misses::.cpu0.data        13768                       # number of ReadReq misses
system.cpu0.dcache.ReadReq_misses::total        13768                       # number of ReadReq misses
system.cpu0.dcache.ReadReq_mshr_miss_latency::.cpu0.data   1462211000                       # number of ReadReq MSHR miss cycles
system.cpu0.dcache.ReadReq_mshr_miss_latency::total   1462211000                       # number of ReadReq MSHR miss cycles
system.cpu0.dcache.ReadReq_mshr_miss_rate::.cpu0.data     0.001264                       # mshr miss rate for ReadReq accesses
system.cpu0.dcache.ReadReq_mshr_miss_rate::total     0.001264                       # mshr miss rate for ReadReq accesses
system.cpu0.dcache.ReadReq_mshr_misses::.cpu0.data        13768                       # number of ReadReq MSHR misses
system.cpu0.dcache.ReadReq_mshr_misses::total        13768                       # number of ReadReq MSHR misses
system.cpu0.dcache.WriteReq_accesses::.cpu0.data      7271862                       # number of WriteReq accesses(hits+misses)
system.cpu0.dcache.WriteReq_accesses::total      7271862                       # number of WriteReq accesses(hits+misses)
system.cpu0.dcache.WriteReq_avg_miss_latency::.cpu0.data 129624.162629                       # average WriteReq miss latency
system.cpu0.dcache.WriteReq_avg_miss_latency::total 129624.162629                       # average WriteReq miss latency
system.cpu0.dcache.WriteReq_avg_mshr_miss_latency::.cpu0.data 127624.162629                       # average WriteReq mshr miss latency
system.cpu0.dcache.WriteReq_avg_mshr_miss_latency::total 127624.162629                       # average WriteReq mshr miss latency
system.cpu0.dcache.WriteReq_hits::.cpu0.data      7220063                       # number of WriteReq hits
system.cpu0.dcache.WriteReq_hits::total       7220063                       # number of WriteReq hits
system.cpu0.dcache.WriteReq_miss_latency::.cpu0.data   6714402000                       # number of WriteReq miss cycles
system.cpu0.dcache.WriteReq_miss_latency::total   6714402000                       # number of WriteReq miss cycles
system.cpu0.dcache.WriteReq_miss_rate::.cpu0.data     0.007123                       # miss rate for WriteReq accesses
system.cpu0.dcache.WriteReq_miss_rate::total     0.007123                       # miss rate for WriteReq accesses
system.cpu0.dcache.WriteReq_misses::.cpu0.data        51799                       # number of WriteReq misses
system.cpu0.dcache.WriteReq_misses::total        51799                       # number of WriteReq misses
system.cpu0.dcache.WriteReq_mshr_miss_latency::.cpu0.data   6610804000                       # number of WriteReq MSHR miss cycles
system.cpu0.dcache.WriteReq_mshr_miss_latency::total   6610804000                       # number of WriteReq MSHR miss cycles
system.cpu0.dcache.WriteReq_mshr_miss_rate::.cpu0.data     0.007123                       # mshr miss rate for WriteReq accesses
system.cpu0.dcache.WriteReq_mshr_miss_rate::total     0.007123                       # mshr miss rate for WriteReq accesses
system.cpu0.dcache.WriteReq_mshr_misses::.cpu0.data        51799                       # number of WriteReq MSHR misses
system.cpu0.dcache.WriteReq_mshr_misses::total        51799                       # number of WriteReq MSHR misses
system.cpu0.dcache.avg_blocked_cycles::no_mshrs          nan                       # average number of cycles each access was blocked
system.cpu0.dcache.avg_blocked_cycles::no_targets          nan                       # average number of cycles each access was blocked
system.cpu0.dcache.blocked::no_mshrs                0                       # number of cycles access was blocked
system.cpu0.dcache.blocked::no_targets              0                       # number of cycles access was blocked
system.cpu0.dcache.blocked_cycles::no_mshrs            0                       # number of cycles access was blocked
system.cpu0.dcache.blocked_cycles::no_targets            0                       # number of cycles access was blocked
system.cpu0.dcache.demand_accesses::.cpu0.data     18163306                       # number of demand (read+write) accesses
system.cpu0.dcache.demand_accesses::total     18163306                       # number of demand (read+write) accesses
system.cpu0.dcache.demand_avg_miss_latency::.cpu0.data 125126.191529                       # average overall miss latency
system.cpu0.dcache.demand_avg_miss_latency::total 125126.191529                       # average overall miss latency
system.cpu0.dcache.demand_avg_mshr_miss_latency::.cpu0.data 123126.191529                       # average overall mshr miss latency
system.cpu0.dcache.demand_avg_mshr_miss_latency::total 123126.191529                       # average overall mshr miss latency
system.cpu0.dcache.demand_hits::.cpu0.data     18097739                       # number of demand (read+write) hits
system.cpu0.dcache.demand_hits::total        18097739                       # number of demand (read+write) hits
system.cpu0.dcache.demand_miss_latency::.cpu0.data   8204149000                       # number of demand (read+write) miss cycles
system.cpu0.dcache.demand_miss_latency::total   8204149000                       # number of demand (read+write) miss cycles
system.cpu0.dcache.demand_miss_rate::.cpu0.data     0.003610                       # miss rate for demand accesses
system.cpu0.dcache.demand_miss_rate::total     0.003610                       # miss rate for demand accesses
system.cpu0.dcache.demand_misses::.cpu0.data        65567                       # number of demand (read+write) misses
system.cpu0.dcache.demand_misses::total         65567                       # number of demand (read+write) misses
system.cpu0.dcache.demand_mshr_miss_latency::.cpu0.data   8073015000                       # number of demand (read+write) MSHR miss cycles
system.cpu0.dcache.demand_mshr_miss_latency::total   8073015000                       # number of demand (read+write) MSHR miss cycles
system.cpu0.dcache.demand_mshr_miss_rate::.cpu0.data     0.003610                       # mshr miss rate for demand accesses
system.cpu0.dcache.demand_mshr_miss_rate::total     0.003610                       # mshr miss rate for demand accesses
system.cpu0.dcache.demand_mshr_misses::.cpu0.data        65567                       # number of demand (read+write) MSHR misses
system.cpu0.dcache.demand_mshr_misses::total        65567                       # number of demand (read+write) MSHR misses
system.cpu0.dcache.overall_accesses::.cpu0.data     18163306                       # number of overall (read+write) accesses
system.cpu0.dcache.overall_accesses::total     18163306                       # number of overall (read+write) accesses
system.cpu0.dcache.overall_avg_miss_latency::.cpu0.data 125126.191529                       # average overall miss latency
system.cpu0.dcache.overall_avg_miss_latency::total 125126.191529                       # average overall miss latency
system.cpu0.dcache.overall_avg_mshr_miss_latency::.cpu0.data 123126.191529                       # average overall mshr miss latency
system.cpu0.dcache.overall_avg_mshr_miss_latency::total 123126.191529                       # average overall mshr miss latency
system.cpu0.dcache.overall_hits::.cpu0.data     18097739                       # number of overall hits
system.cpu0.dcache.overall_hits::total       18097739                       # number of overall hits
system.cpu0.dcache.overall_miss_latency::.cpu0.data   8204149000                       # number of overall miss cycles
system.cpu0.dcache.overall_miss_latency::total   8204149000                       # number of overall miss cycles
system.cpu0.dcache.overall_miss_rate::.cpu0.data     0.003610                       # miss rate for overall accesses
system.cpu0.dcache.overall_miss_rate::total     0.003610                       # miss rate for overall accesses
system.cpu0.dcache.overall_misses::.cpu0.data        65567                       # number of overall misses
system.cpu0.dcache.overall_misses::total        65567                       # number of overall misses
system.cpu0.dcache.overall_mshr_miss_latency::.cpu0.data   8073015000                       # number of overall MSHR miss cycles
system.cpu0.dcache.overall_mshr_miss_latency::total   8073015000                       # number of overall MSHR miss cycles
system.cpu0.dcache.overall_mshr_miss_rate::.cpu0.data     0.003610                       # mshr miss rate for overall accesses
system.cpu0.dcache.overall_mshr_miss_rate::total     0.003610                       # mshr miss rate for overall accesses
system.cpu0.dcache.overall_mshr_misses::.cpu0.data        65567                       # number of overall MSHR misses
system.cpu0.dcache.overall_mshr_misses::total        65567                       # number of overall MSHR misses
system.cpu0.dcache.pwrStateResidencyTicks::UNDEFINED 184991687000                       # Cumulative time (in ticks) in various power states
system.cpu0.dcache.replacements                 64543                       # number of replacements
system.cpu0.dcache.tags.age_task_id_blocks_1024::0            1                       # Occupied blocks per task id
system.cpu0.dcache.tags.age_task_id_blocks_1024::1           19                       # Occupied blocks per task id
system.cpu0.dcache.tags.age_task_id_blocks_1024::2          166                       # Occupied blocks per task id
system.cpu0.dcache.tags.age_task_id_blocks_1024::3          751                       # Occupied blocks per task id
system.cpu0.dcache.tags.age_task_id_blocks_1024::4           87                       # Occupied blocks per task id
system.cpu0.dcache.tags.avg_refs           277.019019                       # Average number of references to valid blocks.
system.cpu0.dcache.tags.data_accesses        36392179                       # Number of data accesses
system.cpu0.dcache.tags.occ_blocks::.cpu0.data  1020.651180                       # Average occupied blocks per requestor
system.cpu0.dcache.tags.occ_percent::.cpu0.data     0.996730                       # Average percentage of cache occupancy
system.cpu0.dcache.tags.occ_percent::total     0.996730                       # Average percentage of cache occupancy
system.cpu0.dcache.tags.occ_task_id_blocks::1024         1024                       # Occupied blocks per task id
system.cpu0.dcache.tags.occ_task_id_percent::1024            1                       # Percentage of cache occupancy per task id
system.cpu0.dcache.tags.pwrStateResidencyTicks::UNDEFINED 184991687000                       # Cumulative time (in ticks) in various power states
system.cpu0.dcache.tags.sampled_refs            65567                       # Sample count of references to valid blocks.
system.cpu0.dcache.tags.tag_accesses         36392179                       # Number of tag accesses
system.cpu0.dcache.tags.tagsinuse         1020.651180                       # Cycle average of tags in use
system.cpu0.dcache.tags.total_refs           18163306                       # Total number of references to valid blocks.
system.cpu0.dcache.tags.warmup_cycle           220000                       # Cycle when the warmup percentage was hit.
system.cpu0.dcache.writebacks::.writebacks        61434                       # number of writebacks
system.cpu0.dcache.writebacks::total            61434                       # number of writebacks
system.cpu0.dtb.rdAccesses                   10891444                       # TLB accesses on read requests
system.cpu0.dtb.rdMisses                         9186                       # TLB misses on read requests
system.cpu0.dtb.walker.pwrStateResidencyTicks::UNDEFINED 184991687000                       # Cumulative time (in ticks) in various power states
system.cpu0.dtb.wrAccesses                    7271862                       # TLB accesses on write requests
system.cpu0.dtb.wrMisses                          887                       # TLB misses on write requests
system.cpu0.icache.ReadReq_accesses::.cpu0.inst     67541363                       # number of ReadReq accesses(hits+misses)
system.cpu0.icache.ReadReq_accesses::total     67541363                       # number of ReadReq accesses(hits+misses)
system.cpu0.icache.ReadReq_avg_miss_latency::.cpu0.inst 26442.525883                       # average ReadReq miss latency
system.cpu0.icache.ReadReq_avg_miss_latency::total 26442.525883                       # average ReadReq miss latency
system.cpu0.icache.ReadReq_avg_mshr_miss_latency::.cpu0.inst 24442.525883                       # average ReadReq mshr miss latency
system.cpu0.icache.ReadReq_avg_mshr_miss_latency::total 24442.525883                       # average ReadReq mshr miss latency
system.cpu0.icache.ReadReq_hits::.cpu0.inst     67315731                       # number of ReadReq hits
system.cpu0.icache.ReadReq_hits::total       67315731                       # number of ReadReq hits
system.cpu0.icache.ReadReq_miss_latency::.cpu0.inst   5966280000                       # number of ReadReq miss cycles
system.cpu0.icache.ReadReq_miss_latency::total   5966280000                       # number of ReadReq miss cycles
system.cpu0.icache.ReadReq_miss_rate::.cpu0.inst     0.003341                       # miss rate for ReadReq accesses
system.cpu0.icache.ReadReq_miss_rate::total     0.003341                       # miss rate for ReadReq accesses
system.cpu0.icache.ReadReq_misses::.cpu0.inst       225632                       # number of ReadReq misses
system.cpu0.icache.ReadReq_misses::total       225632                       # number of ReadReq misses
system.cpu0.icache.ReadReq_mshr_miss_latency::.cpu0.inst   5515016000                       # number of ReadReq MSHR miss cycles
system.cpu0.icache.ReadReq_mshr_miss_latency::total   5515016000                       # number of ReadReq MSHR miss cycles
system.cpu0.icache.ReadReq_mshr_miss_rate::.cpu0.inst     0.003341                       # mshr miss rate for ReadReq accesses
system.cpu0.icache.ReadReq_mshr_miss_rate::total     0.003341                       # mshr miss rate for ReadReq accesses
system.cpu0.icache.ReadReq_mshr_misses::.cpu0.inst       225632                       # number of ReadReq MSHR misses
system.cpu0.icache.ReadReq_mshr_misses::total       225632                       # number of ReadReq MSHR misses
system.cpu0.icache.avg_blocked_cycles::no_mshrs          nan                       # average number of cycles each access was blocked
system.cpu0.icache.avg_blocked_cycles::no_targets          nan                       # average number of cycles each access was blocked
system.cpu0.icache.blocked::no_mshrs                0                       # number of cycles access was blocked
system.cpu0.icache.blocked::no_targets              0                       # number of cycles access was blocked
system.cpu0.icache.blocked_cycles::no_mshrs            0                       # number of cycles access was blocked
system.cpu0.icache.blocked_cycles::no_targets            0                       # number of cycles access was blocked
system.cpu0.icache.demand_accesses::.cpu0.inst     67541363                       # number of demand (read+write) accesses
system.cpu0.icache.demand_accesses::total     67541363                       # number of demand (read+write) accesses
system.cpu0.icache.demand_avg_miss_latency::.cpu0.inst 26442.525883                       # average overall miss latency
system.cpu0.icache.demand_avg_miss_latency::total 26442.525883                       # average overall miss latency
system.cpu0.icache.demand_avg_mshr_miss_latency::.cpu0.inst 24442.525883                       # average overall mshr miss latency
system.cpu0.icache.demand_avg_mshr_miss_latency::total 24442.525883                       # average overall mshr miss latency
system.cpu0.icache.demand_hits::.cpu0.inst     67315731                       # number of demand (read+write) hits
system.cpu0.icache.demand_hits::total        67315731                       # number of demand (read+write) hits
system.cpu0.icache.demand_miss_latency::.cpu0.inst   5966280000                       # number of demand (read+write) miss cycles
system.cpu0.icache.demand_miss_latency::total   5966280000                       # number of demand (read+write) miss cycles
system.cpu0.icache.demand_miss_rate::.cpu0.inst     0.003341                       # miss rate for demand accesses
system.cpu0.icache.demand_miss_rate::total     0.003341                       # miss rate for demand accesses
system.cpu0.icache.demand_misses::.cpu0.inst       225632                       # number of demand (read+write) misses
system.cpu0.icache.demand_misses::total        225632                       # number of demand (read+write) misses
system.cpu0.icache.demand_mshr_miss_latency::.cpu0.inst   5515016000                       # number of demand (read+write) MSHR miss cycles
system.cpu0.icache.demand_mshr_miss_latency::total   5515016000                       # number of demand (read+write) MSHR miss cycles
system.cpu0.icache.demand_mshr_miss_rate::.cpu0.inst     0.003341                       # mshr miss rate for demand accesses
system.cpu0.icache.demand_mshr_miss_rate::total     0.003341                       # mshr miss rate for demand accesses
system.cpu0.icache.demand_mshr_misses::.cpu0.inst       225632                       # number of demand (read+write) MSHR misses
system.cpu0.icache.demand_mshr_misses::total       225632                       # number of demand (read+write) MSHR misses
system.cpu0.icache.overall_accesses::.cpu0.inst     67541363                       # number of overall (read+write) accesses
system.cpu0.icache.overall_accesses::total     67541363                       # number of overall (read+write) accesses
system.cpu0.icache.overall_avg_miss_latency::.cpu0.inst 26442.525883                       # average overall miss latency
system.cpu0.icache.overall_avg_miss_latency::total 26442.525883                       # average overall miss latency
system.cpu0.icache.overall_avg_mshr_miss_latency::.cpu0.inst 24442.525883                       # average overall mshr miss latency
system.cpu0.icache.overall_avg_mshr_miss_latency::total 24442.525883                       # average overall mshr miss latency
system.cpu0.icache.overall_hits::.cpu0.inst     67315731                       # number of overall hits
system.cpu0.icache.overall_hits::total       67315731                       # number of overall hits
system.cpu0.icache.overall_miss_latency::.cpu0.inst   5966280000                       # number of overall miss cycles
system.cpu0.icache.overall_miss_latency::total   5966280000                       # number of overall miss cycles
system.cpu0.icache.overall_miss_rate::.cpu0.inst     0.003341                       # miss rate for overall accesses
system.cpu0.icache.overall_miss_rate::total     0.003341                       # miss rate for overall accesses
system.cpu0.icache.overall_misses::.cpu0.inst       225632                       # number of overall misses
system.cpu0.icache.overall_misses::total       225632                       # number of overall misses
system.cpu0.icache.overall_mshr_miss_latency::.cpu0.inst   5515016000                       # number of overall MSHR miss cycles
system.cpu0.icache.overall_mshr_miss_latency::total   5515016000                       # number of overall MSHR miss cycles
system.cpu0.icache.overall_mshr_miss_rate::.cpu0.inst     0.003341                       # mshr miss rate for overall accesses
system.cpu0.icache.overall_mshr_miss_rate::total     0.003341                       # mshr miss rate for overall accesses
system.cpu0.icache.overall_mshr_misses::.cpu0.inst       225632                       # number of overall MSHR misses
system.cpu0.icache.overall_mshr_misses::total       225632                       # number of overall MSHR misses
system.cpu0.icache.pwrStateResidencyTicks::UNDEFINED 184991687000                       # Cumulative time (in ticks) in various power states
system.cpu0.icache.replacements                225379                       # number of replacements
system.cpu0.icache.tags.age_task_id_blocks_1024::0            6                       # Occupied blocks per task id
system.cpu0.icache.tags.age_task_id_blocks_1024::3           10                       # Occupied blocks per task id
system.cpu0.icache.tags.age_task_id_blocks_1024::4          237                       # Occupied blocks per task id
system.cpu0.icache.tags.avg_refs           299.343014                       # Average number of references to valid blocks.
system.cpu0.icache.tags.data_accesses       135308358                       # Number of data accesses
system.cpu0.icache.tags.occ_blocks::.cpu0.inst   252.703294                       # Average occupied blocks per requestor
system.cpu0.icache.tags.occ_percent::.cpu0.inst     0.987122                       # Average percentage of cache occupancy
system.cpu0.icache.tags.occ_percent::total     0.987122                       # Average percentage of cache occupancy
system.cpu0.icache.tags.occ_task_id_blocks::1024          253                       # Occupied blocks per task id
system.cpu0.icache.tags.occ_task_id_percent::1024     0.988281                       # Percentage of cache occupancy per task id
system.cpu0.icache.tags.pwrStateResidencyTicks::UNDEFINED 184991687000                       # Cumulative time (in ticks) in various power states
system.cpu0.icache.tags.sampled_refs           225632                       # Sample count of references to valid blocks.
system.cpu0.icache.tags.tag_accesses        135308358                       # Number of tag accesses
system.cpu0.icache.tags.tagsinuse          252.703294                       # Cycle average of tags in use
system.cpu0.icache.tags.total_refs           67541363                       # Total number of references to valid blocks.
system.cpu0.icache.tags.warmup_cycle           107000                       # Cycle when the warmup percentage was hit.
system.cpu0.idle_fraction                           0                       # Percentage of idle cycles
system.cpu0.interrupts.clk_domain.clock         16000                       # Clock period in ticks
system.cpu0.interrupts.pwrStateResidencyTicks::UNDEFINED 184991687000                       # Cumulative time (in ticks) in various power states
system.cpu0.itb.rdAccesses                          0                       # TLB accesses on read requests
system.cpu0.itb.rdMisses                            0                       # TLB misses on read requests
system.cpu0.itb.walker.pwrStateResidencyTicks::UNDEFINED 184991687000                       # Cumulative time (in ticks) in various power states
system.cpu0.itb.wrAccesses                   67541363                       # TLB accesses on write requests
system.cpu0.itb.wrMisses                           49                       # TLB misses on write requests
system.cpu0.not_idle_fraction                       1                       # Percentage of non-idle cycles
system.cpu0.numCycles                       184991687                       # number of cpu cycles simulated
system.cpu0.numWorkItemsCompleted                   0                       # number of work items this cpu completed
system.cpu0.numWorkItemsStarted                     0                       # number of work items this cpu started
system.cpu0.num_busy_cycles                 184991687                       # Number of busy cycles
system.cpu0.num_cc_register_reads            57979617                       # number of times the CC registers were read
system.cpu0.num_cc_register_writes           29701118                       # number of times the CC registers were written
system.cpu0.num_conditional_control_insts      9154243                       # number of instructions that are conditional controls
system.cpu0.num_fp_alu_accesses               1222028                       # Number of float alu accesses
system.cpu0.num_fp_insts                      1222028                       # number of float instructions
system.cpu0.num_fp_register_reads             1373368                       # number of times the floating registers were read
system.cpu0.num_fp_register_writes             922497                       # number of times the floating registers were written
system.cpu0.num_func_calls                     950502                       # number of times a function call or return occured
system.cpu0.num_idle_cycles                         0                       # Number of idle cycles
system.cpu0.num_int_alu_accesses             92639521                       # Number of integer alu accesses
system.cpu0.num_int_insts                    92639521                       # number of integer instructions
system.cpu0.num_int_register_reads          179318747                       # number of times the integer registers were read
system.cpu0.num_int_register_writes          74024219                       # number of times the integer registers were written
system.cpu0.num_load_insts                   10885769                       # Number of load instructions
system.cpu0.num_mem_refs                     18157628                       # number of memory refs
system.cpu0.num_store_insts                   7271859                       # Number of store instructions
system.cpu0.num_vec_alu_accesses                    0                       # Number of vector alu accesses
system.cpu0.num_vec_insts                           0                       # number of vector instructions
system.cpu0.num_vec_register_reads                  0                       # number of times the vector registers were read
system.cpu0.num_vec_register_writes                 0                       # number of times the vector registers were written
system.cpu0.op_class::No_OpClass               166594      0.18%      0.18% # Class of executed instruction
system.cpu0.op_class::IntAlu                 74152939     79.41%     79.58% # Class of executed instruction
system.cpu0.op_class::IntMult                  223307      0.24%     79.82% # Class of executed instruction
system.cpu0.op_class::IntDiv                       21      0.00%     79.82% # Class of executed instruction
system.cpu0.op_class::FloatAdd                 117253      0.13%     79.95% # Class of executed instruction
system.cpu0.op_class::FloatCmp                      0      0.00%     79.95% # Class of executed instruction
system.cpu0.op_class::FloatCvt                      0      0.00%     79.95% # Class of executed instruction
system.cpu0.op_class::FloatMult                     0      0.00%     79.95% # Class of executed instruction
system.cpu0.op_class::FloatMultAcc                  0      0.00%     79.95% # Class of executed instruction
system.cpu0.op_class::FloatDiv                      0      0.00%     79.95% # Class of executed instruction
system.cpu0.op_class::FloatMisc                     0      0.00%     79.95% # Class of executed instruction
system.cpu0.op_class::FloatSqrt                     0      0.00%     79.95% # Class of executed instruction
system.cpu0.op_class::SimdAdd                     374      0.00%     79.95% # Class of executed instruction
system.cpu0.op_class::SimdAddAcc                    0      0.00%     79.95% # Class of executed instruction
system.cpu0.op_class::SimdAlu                     100      0.00%     79.95% # Class of executed instruction
system.cpu0.op_class::SimdCmp                       0      0.00%     79.95% # Class of executed instruction
system.cpu0.op_class::SimdCvt                  110366      0.12%     80.07% # Class of executed instruction
system.cpu0.op_class::SimdMisc                 455663      0.49%     80.56% # Class of executed instruction
system.cpu0.op_class::SimdMult                      0      0.00%     80.56% # Class of executed instruction
system.cpu0.op_class::SimdMultAcc                   0      0.00%     80.56% # Class of executed instruction
system.cpu0.op_class::SimdShift                   186      0.00%     80.56% # Class of executed instruction
system.cpu0.op_class::SimdShiftAcc                  0      0.00%     80.56% # Class of executed instruction
system.cpu0.op_class::SimdDiv                       0      0.00%     80.56% # Class of executed instruction
system.cpu0.op_class::SimdSqrt                      0      0.00%     80.56% # Class of executed instruction
system.cpu0.op_class::SimdFloatAdd                  0      0.00%     80.56% # Class of executed instruction
system.cpu0.op_class::SimdFloatAlu                  0      0.00%     80.56% # Class of executed instruction
system.cpu0.op_class::SimdFloatCmp                  0      0.00%     80.56% # Class of executed instruction
system.cpu0.op_class::SimdFloatCvt                  0      0.00%     80.56% # Class of executed instruction
system.cpu0.op_class::SimdFloatDiv                  0      0.00%     80.56% # Class of executed instruction
system.cpu0.op_class::SimdFloatMisc                 0      0.00%     80.56% # Class of executed instruction
system.cpu0.op_class::SimdFloatMult                 0      0.00%     80.56% # Class of executed instruction
system.cpu0.op_class::SimdFloatMultAcc              0      0.00%     80.56% # Class of executed instruction
system.cpu0.op_class::SimdFloatSqrt                 0      0.00%     80.56% # Class of executed instruction
system.cpu0.op_class::SimdReduceAdd                 0      0.00%     80.56% # Class of executed instruction
system.cpu0.op_class::SimdReduceAlu                 0      0.00%     80.56% # Class of executed instruction
system.cpu0.op_class::SimdReduceCmp                 0      0.00%     80.56% # Class of executed instruction
system.cpu0.op_class::SimdFloatReduceAdd            0      0.00%     80.56% # Class of executed instruction
system.cpu0.op_class::SimdFloatReduceCmp            0      0.00%     80.56% # Class of executed instruction
system.cpu0.op_class::SimdAes                       0      0.00%     80.56% # Class of executed instruction
system.cpu0.op_class::SimdAesMix                    0      0.00%     80.56% # Class of executed instruction
system.cpu0.op_class::SimdSha1Hash                  0      0.00%     80.56% # Class of executed instruction
system.cpu0.op_class::SimdSha1Hash2                 0      0.00%     80.56% # Class of executed instruction
system.cpu0.op_class::SimdSha256Hash                0      0.00%     80.56% # Class of executed instruction
system.cpu0.op_class::SimdSha256Hash2               0      0.00%     80.56% # Class of executed instruction
system.cpu0.op_class::SimdShaSigma2                 0      0.00%     80.56% # Class of executed instruction
system.cpu0.op_class::SimdShaSigma3                 0      0.00%     80.56% # Class of executed instruction
system.cpu0.op_class::SimdPredAlu                   0      0.00%     80.56% # Class of executed instruction
system.cpu0.op_class::MemRead                10586733     11.34%     91.89% # Class of executed instruction
system.cpu0.op_class::MemWrite                7082634      7.58%     99.48% # Class of executed instruction
system.cpu0.op_class::FloatMemRead             299036      0.32%     99.80% # Class of executed instruction
system.cpu0.op_class::FloatMemWrite            189225      0.20%    100.00% # Class of executed instruction
system.cpu0.op_class::IprAccess                     0      0.00%    100.00% # Class of executed instruction
system.cpu0.op_class::InstPrefetch                  0      0.00%    100.00% # Class of executed instruction
system.cpu0.op_class::total                  93384431                       # Class of executed instruction
system.cpu0.pwrStateResidencyTicks::ON   184991687000                       # Cumulative time (in ticks) in various power states
system.cpu0.workload.numSyscalls                   56                       # Number of system calls
system.cpu1.Branches                         11271693                       # Number of branches fetched
system.cpu1.committedInsts                   50000000                       # Number of instructions committed
system.cpu1.committedOps                     93416416                       # Number of ops (including micro ops) committed
system.cpu1.dcache.ReadReq_accesses::.cpu1.data     10895037                       # number of ReadReq accesses(hits+misses)
system.cpu1.dcache.ReadReq_accesses::total     10895037                       # number of ReadReq accesses(hits+misses)
system.cpu1.dcache.ReadReq_avg_miss_latency::.cpu1.data 107317.131648                       # average ReadReq miss latency
system.cpu1.dcache.ReadReq_avg_miss_latency::total 107317.131648                       # average ReadReq miss latency
system.cpu1.dcache.ReadReq_avg_mshr_miss_latency::.cpu1.data 105317.131648                       # average ReadReq mshr miss latency
system.cpu1.dcache.ReadReq_avg_mshr_miss_latency::total 105317.131648                       # average ReadReq mshr miss latency
system.cpu1.dcache.ReadReq_hits::.cpu1.data     10881273                       # number of ReadReq hits
system.cpu1.dcache.ReadReq_hits::total       10881273                       # number of ReadReq hits
system.cpu1.dcache.ReadReq_miss_latency::.cpu1.data   1477113000                       # number of ReadReq miss cycles
system.cpu1.dcache.ReadReq_miss_latency::total   1477113000                       # number of ReadReq miss cycles
system.cpu1.dcache.ReadReq_miss_rate::.cpu1.data     0.001263                       # miss rate for ReadReq accesses
system.cpu1.dcache.ReadReq_miss_rate::total     0.001263                       # miss rate for ReadReq accesses
system.cpu1.dcache.ReadReq_misses::.cpu1.data        13764                       # number of ReadReq misses
system.cpu1.dcache.ReadReq_misses::total        13764                       # number of ReadReq misses
system.cpu1.dcache.ReadReq_mshr_miss_latency::.cpu1.data   1449585000                       # number of ReadReq MSHR miss cycles
system.cpu1.dcache.ReadReq_mshr_miss_latency::total   1449585000                       # number of ReadReq MSHR miss cycles
system.cpu1.dcache.ReadReq_mshr_miss_rate::.cpu1.data     0.001263                       # mshr miss rate for ReadReq accesses
system.cpu1.dcache.ReadReq_mshr_miss_rate::total     0.001263                       # mshr miss rate for ReadReq accesses
system.cpu1.dcache.ReadReq_mshr_misses::.cpu1.data        13764                       # number of ReadReq MSHR misses
system.cpu1.dcache.ReadReq_mshr_misses::total        13764                       # number of ReadReq MSHR misses
system.cpu1.dcache.WriteReq_accesses::.cpu1.data      7274294                       # number of WriteReq accesses(hits+misses)
system.cpu1.dcache.WriteReq_accesses::total      7274294                       # number of WriteReq accesses(hits+misses)
system.cpu1.dcache.WriteReq_avg_miss_latency::.cpu1.data 128657.061242                       # average WriteReq miss latency
system.cpu1.dcache.WriteReq_avg_miss_latency::total 128657.061242                       # average WriteReq miss latency
system.cpu1.dcache.WriteReq_avg_mshr_miss_latency::.cpu1.data 126657.061242                       # average WriteReq mshr miss latency
system.cpu1.dcache.WriteReq_avg_mshr_miss_latency::total 126657.061242                       # average WriteReq mshr miss latency
system.cpu1.dcache.WriteReq_hits::.cpu1.data      7222483                       # number of WriteReq hits
system.cpu1.dcache.WriteReq_hits::total       7222483                       # number of WriteReq hits
system.cpu1.dcache.WriteReq_miss_latency::.cpu1.data   6665851000                       # number of WriteReq miss cycles
system.cpu1.dcache.WriteReq_miss_latency::total   6665851000                       # number of WriteReq miss cycles
system.cpu1.dcache.WriteReq_miss_rate::.cpu1.data     0.007122                       # miss rate for WriteReq accesses
system.cpu1.dcache.WriteReq_miss_rate::total     0.007122                       # miss rate for WriteReq accesses
system.cpu1.dcache.WriteReq_misses::.cpu1.data        51811                       # number of WriteReq misses
system.cpu1.dcache.WriteReq_misses::total        51811                       # number of WriteReq misses
system.cpu1.dcache.WriteReq_mshr_miss_latency::.cpu1.data   6562229000                       # number of WriteReq MSHR miss cycles
system.cpu1.dcache.WriteReq_mshr_miss_latency::total   6562229000                       # number of WriteReq MSHR miss cycles
system.cpu1.dcache.WriteReq_mshr_miss_rate::.cpu1.data     0.007122                       # mshr miss rate for WriteReq accesses
system.cpu1.dcache.WriteReq_mshr_miss_rate::total     0.007122                       # mshr miss rate for WriteReq accesses
system.cpu1.dcache.WriteReq_mshr_misses::.cpu1.data        51811                       # number of WriteReq MSHR misses
system.cpu1.dcache.WriteReq_mshr_misses::total        51811                       # number of WriteReq MSHR misses
system.cpu1.dcache.avg_blocked_cycles::no_mshrs          nan                       # average number of cycles each access was blocked
system.cpu1.dcache.avg_blocked_cycles::no_targets          nan                       # average number of cycles each access was blocked
system.cpu1.dcache.blocked::no_mshrs                0                       # number of cycles access was blocked
system.cpu1.dcache.blocked::no_targets              0                       # number of cycles access was blocked
system.cpu1.dcache.blocked_cycles::no_mshrs            0                       # number of cycles access was blocked
system.cpu1.dcache.blocked_cycles::no_targets            0                       # number of cycles access was blocked
system.cpu1.dcache.demand_accesses::.cpu1.data     18169331                       # number of demand (read+write) accesses
system.cpu1.dcache.demand_accesses::total     18169331                       # number of demand (read+write) accesses
system.cpu1.dcache.demand_avg_miss_latency::.cpu1.data 124177.872665                       # average overall miss latency
system.cpu1.dcache.demand_avg_miss_latency::total 124177.872665                       # average overall miss latency
system.cpu1.dcache.demand_avg_mshr_miss_latency::.cpu1.data 122177.872665                       # average overall mshr miss latency
system.cpu1.dcache.demand_avg_mshr_miss_latency::total 122177.872665                       # average overall mshr miss latency
system.cpu1.dcache.demand_hits::.cpu1.data     18103756                       # number of demand (read+write) hits
system.cpu1.dcache.demand_hits::total        18103756                       # number of demand (read+write) hits
system.cpu1.dcache.demand_miss_latency::.cpu1.data   8142964000                       # number of demand (read+write) miss cycles
system.cpu1.dcache.demand_miss_latency::total   8142964000                       # number of demand (read+write) miss cycles
system.cpu1.dcache.demand_miss_rate::.cpu1.data     0.003609                       # miss rate for demand accesses
system.cpu1.dcache.demand_miss_rate::total     0.003609                       # miss rate for demand accesses
system.cpu1.dcache.demand_misses::.cpu1.data        65575                       # number of demand (read+write) misses
system.cpu1.dcache.demand_misses::total         65575                       # number of demand (read+write) misses
system.cpu1.dcache.demand_mshr_miss_latency::.cpu1.data   8011814000                       # number of demand (read+write) MSHR miss cycles
system.cpu1.dcache.demand_mshr_miss_latency::total   8011814000                       # number of demand (read+write) MSHR miss cycles
system.cpu1.dcache.demand_mshr_miss_rate::.cpu1.data     0.003609                       # mshr miss rate for demand accesses
system.cpu1.dcache.demand_mshr_miss_rate::total     0.003609                       # mshr miss rate for demand accesses
system.cpu1.dcache.demand_mshr_misses::.cpu1.data        65575                       # number of demand (read+write) MSHR misses
system.cpu1.dcache.demand_mshr_misses::total        65575                       # number of demand (read+write) MSHR misses
system.cpu1.dcache.overall_accesses::.cpu1.data     18169331                       # number of overall (read+write) accesses
system.cpu1.dcache.overall_accesses::total     18169331                       # number of overall (read+write) accesses
system.cpu1.dcache.overall_avg_miss_latency::.cpu1.data 124177.872665                       # average overall miss latency
system.cpu1.dcache.overall_avg_miss_latency::total 124177.872665                       # average overall miss latency
system.cpu1.dcache.overall_avg_mshr_miss_latency::.cpu1.data 122177.872665                       # average overall mshr miss latency
system.cpu1.dcache.overall_avg_mshr_miss_latency::total 122177.872665                       # average overall mshr miss latency
system.cpu1.dcache.overall_hits::.cpu1.data     18103756                       # number of overall hits
system.cpu1.dcache.overall_hits::total       18103756                       # number of overall hits
system.cpu1.dcache.overall_miss_latency::.cpu1.data   8142964000                       # number of overall miss cycles
system.cpu1.dcache.overall_miss_latency::total   8142964000                       # number of overall miss cycles
system.cpu1.dcache.overall_miss_rate::.cpu1.data     0.003609                       # miss rate for overall accesses
system.cpu1.dcache.overall_miss_rate::total     0.003609                       # miss rate for overall accesses
system.cpu1.dcache.overall_misses::.cpu1.data        65575                       # number of overall misses
system.cpu1.dcache.overall_misses::total        65575                       # number of overall misses
system.cpu1.dcache.overall_mshr_miss_latency::.cpu1.data   8011814000                       # number of overall MSHR miss cycles
system.cpu1.dcache.overall_mshr_miss_latency::total   8011814000                       # number of overall MSHR miss cycles
system.cpu1.dcache.overall_mshr_miss_rate::.cpu1.data     0.003609                       # mshr miss rate for overall accesses
system.cpu1.dcache.overall_mshr_miss_rate::total     0.003609                       # mshr miss rate for overall accesses
system.cpu1.dcache.overall_mshr_misses::.cpu1.data        65575                       # number of overall MSHR misses
system.cpu1.dcache.overall_mshr_misses::total        65575                       # number of overall MSHR misses
system.cpu1.dcache.pwrStateResidencyTicks::UNDEFINED 184991687000                       # Cumulative time (in ticks) in various power states
system.cpu1.dcache.replacements                 64551                       # number of replacements
system.cpu1.dcache.tags.age_task_id_blocks_1024::0            1                       # Occupied blocks per task id
system.cpu1.dcache.tags.age_task_id_blocks_1024::1           18                       # Occupied blocks per task id
system.cpu1.dcache.tags.age_task_id_blocks_1024::2          161                       # Occupied blocks per task id
system.cpu1.dcache.tags.age_task_id_blocks_1024::3          775                       # Occupied blocks per task id
system.cpu1.dcache.tags.age_task_id_blocks_1024::4           69                       # Occupied blocks per task id
system.cpu1.dcache.tags.avg_refs           277.077103                       # Average number of references to valid blocks.
system.cpu1.dcache.tags.data_accesses        36404237                       # Number of data accesses
system.cpu1.dcache.tags.occ_blocks::.cpu1.data  1020.318208                       # Average occupied blocks per requestor
system.cpu1.dcache.tags.occ_percent::.cpu1.data     0.996405                       # Average percentage of cache occupancy
system.cpu1.dcache.tags.occ_percent::total     0.996405                       # Average percentage of cache occupancy
system.cpu1.dcache.tags.occ_task_id_blocks::1024         1024                       # Occupied blocks per task id
system.cpu1.dcache.tags.occ_task_id_percent::1024            1                       # Percentage of cache occupancy per task id
system.cpu1.dcache.tags.pwrStateResidencyTicks::UNDEFINED 184991687000                       # Cumulative time (in ticks) in various power states
system.cpu1.dcache.tags.sampled_refs            65575                       # Sample count of references to valid blocks.
system.cpu1.dcache.tags.tag_accesses         36404237                       # Number of tag accesses
system.cpu1.dcache.tags.tagsinuse         1020.318208                       # Cycle average of tags in use
system.cpu1.dcache.tags.total_refs           18169331                       # Total number of references to valid blocks.
system.cpu1.dcache.tags.warmup_cycle           283000                       # Cycle when the warmup percentage was hit.
system.cpu1.dcache.writebacks::.writebacks        61409                       # number of writebacks
system.cpu1.dcache.writebacks::total            61409                       # number of writebacks
system.cpu1.dtb.rdAccesses                   10895037                       # TLB accesses on read requests
system.cpu1.dtb.rdMisses                         9193                       # TLB misses on read requests
system.cpu1.dtb.walker.pwrStateResidencyTicks::UNDEFINED 184991687000                       # Cumulative time (in ticks) in various power states
system.cpu1.dtb.wrAccesses                    7274294                       # TLB accesses on write requests
system.cpu1.dtb.wrMisses                          888                       # TLB misses on write requests
system.cpu1.icache.ReadReq_accesses::.cpu1.inst     67564204                       # number of ReadReq accesses(hits+misses)
system.cpu1.icache.ReadReq_accesses::total     67564204                       # number of ReadReq accesses(hits+misses)
system.cpu1.icache.ReadReq_avg_miss_latency::.cpu1.inst 26450.107220                       # average ReadReq miss latency
system.cpu1.icache.ReadReq_avg_miss_latency::total 26450.107220                       # average ReadReq miss latency
system.cpu1.icache.ReadReq_avg_mshr_miss_latency::.cpu1.inst 24450.107220                       # average ReadReq mshr miss latency
system.cpu1.icache.ReadReq_avg_mshr_miss_latency::total 24450.107220                       # average ReadReq mshr miss latency
system.cpu1.icache.ReadReq_hits::.cpu1.inst     67338500                       # number of ReadReq hits
system.cpu1.icache.ReadReq_hits::total       67338500                       # number of ReadReq hits
system.cpu1.icache.ReadReq_miss_latency::.cpu1.inst   5969895000                       # number of ReadReq miss cycles
system.cpu1.icache.ReadReq_miss_latency::total   5969895000                       # number of ReadReq miss cycles
system.cpu1.icache.ReadReq_miss_rate::.cpu1.inst     0.003341                       # miss rate for ReadReq accesses
system.cpu1.icache.ReadReq_miss_rate::total     0.003341                       # miss rate for ReadReq accesses
system.cpu1.icache.ReadReq_misses::.cpu1.inst       225704                       # number of ReadReq misses
system.cpu1.icache.ReadReq_misses::total       225704                       # number of ReadReq misses
system.cpu1.icache.ReadReq_mshr_miss_latency::.cpu1.inst   5518487000                       # number of ReadReq MSHR miss cycles
system.cpu1.icache.ReadReq_mshr_miss_latency::total   5518487000                       # number of ReadReq MSHR miss cycles
system.cpu1.icache.ReadReq_mshr_miss_rate::.cpu1.inst     0.003341                       # mshr miss rate for ReadReq accesses
system.cpu1.icache.ReadReq_mshr_miss_rate::total     0.003341                       # mshr miss rate for ReadReq accesses
system.cpu1.icache.ReadReq_mshr_misses::.cpu1.inst       225704                       # number of ReadReq MSHR misses
system.cpu1.icache.ReadReq_mshr_misses::total       225704                       # number of ReadReq MSHR misses
system.cpu1.icache.avg_blocked_cycles::no_mshrs          nan                       # average number of cycles each access was blocked
system.cpu1.icache.avg_blocked_cycles::no_targets          nan                       # average number of cycles each access was blocked
system.cpu1.icache.blocked::no_mshrs                0                       # number of cycles access was blocked
system.cpu1.icache.blocked::no_targets              0                       # number of cycles access was blocked
system.cpu1.icache.blocked_cycles::no_mshrs            0                       # number of cycles access was blocked
system.cpu1.icache.blocked_cycles::no_targets            0                       # number of cycles access was blocked
system.cpu1.icache.demand_accesses::.cpu1.inst     67564204                       # number of demand (read+write) accesses
system.cpu1.icache.demand_accesses::total     67564204                       # number of demand (read+write) accesses
system.cpu1.icache.demand_avg_miss_latency::.cpu1.inst 26450.107220                       # average overall miss latency
system.cpu1.icache.demand_avg_miss_latency::total 26450.107220                       # average overall miss latency
system.cpu1.icache.demand_avg_mshr_miss_latency::.cpu1.inst 24450.107220                       # average overall mshr miss latency
system.cpu1.icache.demand_avg_mshr_miss_latency::total 24450.107220                       # average overall mshr miss latency
system.cpu1.icache.demand_hits::.cpu1.inst     67338500                       # number of demand (read+write) hits
system.cpu1.icache.demand_hits::total        67338500                       # number of demand (read+write) hits
system.cpu1.icache.demand_miss_latency::.cpu1.inst   5969895000                       # number of demand (read+write) miss cycles
system.cpu1.icache.demand_miss_latency::total   5969895000                       # number of demand (read+write) miss cycles
system.cpu1.icache.demand_miss_rate::.cpu1.inst     0.003341                       # miss rate for demand accesses
system.cpu1.icache.demand_miss_rate::total     0.003341                       # miss rate for demand accesses
system.cpu1.icache.demand_misses::.cpu1.inst       225704                       # number of demand (read+write) misses
system.cpu1.icache.demand_misses::total        225704                       # number of demand (read+write) misses
system.cpu1.icache.demand_mshr_miss_latency::.cpu1.inst   5518487000                       # number of demand (read+write) MSHR miss cycles
system.cpu1.icache.demand_mshr_miss_latency::total   5518487000                       # number of demand (read+write) MSHR miss cycles
system.cpu1.icache.demand_mshr_miss_rate::.cpu1.inst     0.003341                       # mshr miss rate for demand accesses
system.cpu1.icache.demand_mshr_miss_rate::total     0.003341                       # mshr miss rate for demand accesses
system.cpu1.icache.demand_mshr_misses::.cpu1.inst       225704                       # number of demand (read+write) MSHR misses
system.cpu1.icache.demand_mshr_misses::total       225704                       # number of demand (read+write) MSHR misses
system.cpu1.icache.overall_accesses::.cpu1.inst     67564204                       # number of overall (read+write) accesses
system.cpu1.icache.overall_accesses::total     67564204                       # number of overall (read+write) accesses
system.cpu1.icache.overall_avg_miss_latency::.cpu1.inst 26450.107220                       # average overall miss latency
system.cpu1.icache.overall_avg_miss_latency::total 26450.107220                       # average overall miss latency
system.cpu1.icache.overall_avg_mshr_miss_latency::.cpu1.inst 24450.107220                       # average overall mshr miss latency
system.cpu1.icache.overall_avg_mshr_miss_latency::total 24450.107220                       # average overall mshr miss latency
system.cpu1.icache.overall_hits::.cpu1.inst     67338500                       # number of overall hits
system.cpu1.icache.overall_hits::total       67338500                       # number of overall hits
system.cpu1.icache.overall_miss_latency::.cpu1.inst   5969895000                       # number of overall miss cycles
system.cpu1.icache.overall_miss_latency::total   5969895000                       # number of overall miss cycles
system.cpu1.icache.overall_miss_rate::.cpu1.inst     0.003341                       # miss rate for overall accesses
system.cpu1.icache.overall_miss_rate::total     0.003341                       # miss rate for overall accesses
system.cpu1.icache.overall_misses::.cpu1.inst       225704                       # number of overall misses
system.cpu1.icache.overall_misses::total       225704                       # number of overall misses
system.cpu1.icache.overall_mshr_miss_latency::.cpu1.inst   5518487000                       # number of overall MSHR miss cycles
system.cpu1.icache.overall_mshr_miss_latency::total   5518487000                       # number of overall MSHR miss cycles
system.cpu1.icache.overall_mshr_miss_rate::.cpu1.inst     0.003341                       # mshr miss rate for overall accesses
system.cpu1.icache.overall_mshr_miss_rate::total     0.003341                       # mshr miss rate for overall accesses
system.cpu1.icache.overall_mshr_misses::.cpu1.inst       225704                       # number of overall MSHR misses
system.cpu1.icache.overall_mshr_misses::total       225704                       # number of overall MSHR misses
system.cpu1.icache.pwrStateResidencyTicks::UNDEFINED 184991687000                       # Cumulative time (in ticks) in various power states
system.cpu1.icache.replacements                225451                       # number of replacements
system.cpu1.icache.tags.age_task_id_blocks_1024::0            6                       # Occupied blocks per task id
system.cpu1.icache.tags.age_task_id_blocks_1024::3           10                       # Occupied blocks per task id
system.cpu1.icache.tags.age_task_id_blocks_1024::4          237                       # Occupied blocks per task id
system.cpu1.icache.tags.avg_refs           299.348722                       # Average number of references to valid blocks.
system.cpu1.icache.tags.data_accesses       135354112                       # Number of data accesses
system.cpu1.icache.tags.occ_blocks::.cpu1.inst   252.702252                       # Average occupied blocks per requestor
system.cpu1.icache.tags.occ_percent::.cpu1.inst     0.987118                       # Average percentage of cache occupancy
system.cpu1.icache.tags.occ_percent::total     0.987118                       # Average percentage of cache occupancy
system.cpu1.icache.tags.occ_task_id_blocks::1024          253                       # Occupied blocks per task id
system.cpu1.icache.tags.occ_task_id_percent::1024     0.988281                       # Percentage of cache occupancy per task id
system.cpu1.icache.tags.pwrStateResidencyTicks::UNDEFINED 184991687000                       # Cumulative time (in ticks) in various power states
system.cpu1.icache.tags.sampled_refs           225704                       # Sample count of references to valid blocks.
system.cpu1.icache.tags.tag_accesses        135354112                       # Number of tag accesses
system.cpu1.icache.tags.tagsinuse          252.702252                       # Cycle average of tags in use
system.cpu1.icache.tags.total_refs           67564204                       # Total number of references to valid blocks.
system.cpu1.icache.tags.warmup_cycle           156000                       # Cycle when the warmup percentage was hit.
system.cpu1.idle_fraction                           0                       # Percentage of idle cycles
system.cpu1.interrupts.clk_domain.clock         16000                       # Clock period in ticks
system.cpu1.interrupts.pwrStateResidencyTicks::UNDEFINED 184991687000                       # Cumulative time (in ticks) in various power states
system.cpu1.itb.rdAccesses                          0                       # TLB accesses on read requests
system.cpu1.itb.rdMisses                            0                       # TLB misses on read requests
system.cpu1.itb.walker.pwrStateResidencyTicks::UNDEFINED 184991687000                       # Cumulative time (in ticks) in various power states
system.cpu1.itb.wrAccesses                   67564204                       # TLB accesses on write requests
system.cpu1.itb.wrMisses                           49                       # TLB misses on write requests
system.cpu1.not_idle_fraction                       1                       # Percentage of non-idle cycles
system.cpu1.numCycles                       184991687                       # number of cpu cycles simulated
system.cpu1.numWorkItemsCompleted                   0                       # number of work items this cpu completed
system.cpu1.numWorkItemsStarted                     0                       # number of work items this cpu started
system.cpu1.num_busy_cycles                 184991687                       # Number of busy cycles
system.cpu1.num_cc_register_reads            57999789                       # number of times the CC registers were read
system.cpu1.num_cc_register_writes           29711192                       # number of times the CC registers were written
system.cpu1.num_conditional_control_insts      9157455                       # number of instructions that are conditional controls
system.cpu1.num_fp_alu_accesses               1222432                       # Number of float alu accesses
system.cpu1.num_fp_insts                      1222432                       # number of float instructions
system.cpu1.num_fp_register_reads             1373816                       # number of times the floating registers were read
system.cpu1.num_fp_register_writes             922801                       # number of times the floating registers were written
system.cpu1.num_func_calls                     950822                       # number of times a function call or return occured
system.cpu1.num_idle_cycles                         0                       # Number of idle cycles
system.cpu1.num_int_alu_accesses             92671260                       # Number of integer alu accesses
system.cpu1.num_int_insts                    92671260                       # number of integer instructions
system.cpu1.num_int_register_reads          179379720                       # number of times the integer registers were read
system.cpu1.num_int_register_writes          74049566                       # number of times the integer registers were written
system.cpu1.num_load_insts                   10889359                       # Number of load instructions
system.cpu1.num_mem_refs                     18163650                       # number of memory refs
system.cpu1.num_store_insts                   7274291                       # Number of store instructions
system.cpu1.num_vec_alu_accesses                    0                       # Number of vector alu accesses
system.cpu1.num_vec_insts                           0                       # number of vector instructions
system.cpu1.num_vec_register_reads                  0                       # number of times the vector registers were read
system.cpu1.num_vec_register_writes                 0                       # number of times the vector registers were written
system.cpu1.op_class::No_OpClass               166650      0.18%      0.18% # Class of executed instruction
system.cpu1.op_class::IntAlu                 74178542     79.41%     79.58% # Class of executed instruction
system.cpu1.op_class::IntMult                  223387      0.24%     79.82% # Class of executed instruction
system.cpu1.op_class::IntDiv                       21      0.00%     79.82% # Class of executed instruction
system.cpu1.op_class::FloatAdd                 117293      0.13%     79.95% # Class of executed instruction
system.cpu1.op_class::FloatCmp                      0      0.00%     79.95% # Class of executed instruction
system.cpu1.op_class::FloatCvt                      0      0.00%     79.95% # Class of executed instruction
system.cpu1.op_class::FloatMult                     0      0.00%     79.95% # Class of executed instruction
system.cpu1.op_class::FloatMultAcc                  0      0.00%     79.95% # Class of executed instruction
system.cpu1.op_class::FloatDiv                      0      0.00%     79.95% # Class of executed instruction
system.cpu1.op_class::FloatMisc                     0      0.00%     79.95% # Class of executed instruction
system.cpu1.op_class::FloatSqrt                     0      0.00%     79.95% # Class of executed instruction
system.cpu1.op_class::SimdAdd                     374      0.00%     79.95% # Class of executed instruction
system.cpu1.op_class::SimdAddAcc                    0      0.00%     79.95% # Class of executed instruction
system.cpu1.op_class::SimdAlu                     100      0.00%     79.95% # Class of executed instruction
system.cpu1.op_class::SimdCmp                       0      0.00%     79.95% # Class of executed instruction
system.cpu1.op_class::SimdCvt                  110402      0.12%     80.07% # Class of executed instruction
system.cpu1.op_class::SimdMisc                 455811      0.49%     80.56% # Class of executed instruction
system.cpu1.op_class::SimdMult                      0      0.00%     80.56% # Class of executed instruction
system.cpu1.op_class::SimdMultAcc                   0      0.00%     80.56% # Class of executed instruction
system.cpu1.op_class::SimdShift                   186      0.00%     80.56% # Class of executed instruction
system.cpu1.op_class::SimdShiftAcc                  0      0.00%     80.56% # Class of executed instruction
system.cpu1.op_class::SimdDiv                       0      0.00%     80.56% # Class of executed instruction
system.cpu1.op_class::SimdSqrt                      0      0.00%     80.56% # Class of executed instruction
system.cpu1.op_class::SimdFloatAdd                  0      0.00%     80.56% # Class of executed instruction
system.cpu1.op_class::SimdFloatAlu                  0      0.00%     80.56% # Class of executed instruction
system.cpu1.op_class::SimdFloatCmp                  0      0.00%     80.56% # Class of executed instruction
system.cpu1.op_class::SimdFloatCvt                  0      0.00%     80.56% # Class of executed instruction
system.cpu1.op_class::SimdFloatDiv                  0      0.00%     80.56% # Class of executed instruction
system.cpu1.op_class::SimdFloatMisc                 0      0.00%     80.56% # Class of executed instruction
system.cpu1.op_class::SimdFloatMult                 0      0.00%     80.56% # Class of executed instruction
system.cpu1.op_class::SimdFloatMultAcc              0      0.00%     80.56% # Class of executed instruction
system.cpu1.op_class::SimdFloatSqrt                 0      0.00%     80.56% # Class of executed instruction
system.cpu1.op_class::SimdReduceAdd                 0      0.00%     80.56% # Class of executed instruction
system.cpu1.op_class::SimdReduceAlu                 0      0.00%     80.56% # Class of executed instruction
system.cpu1.op_class::SimdReduceCmp                 0      0.00%     80.56% # Class of executed instruction
system.cpu1.op_class::SimdFloatReduceAdd            0      0.00%     80.56% # Class of executed instruction
system.cpu1.op_class::SimdFloatReduceCmp            0      0.00%     80.56% # Class of executed instruction
system.cpu1.op_class::SimdAes                       0      0.00%     80.56% # Class of executed instruction
system.cpu1.op_class::SimdAesMix                    0      0.00%     80.56% # Class of executed instruction
system.cpu1.op_class::SimdSha1Hash                  0      0.00%     80.56% # Class of executed instruction
system.cpu1.op_class::SimdSha1Hash2                 0      0.00%     80.56% # Class of executed instruction
system.cpu1.op_class::SimdSha256Hash                0      0.00%     80.56% # Class of executed instruction
system.cpu1.op_class::SimdSha256Hash2               0      0.00%     80.56% # Class of executed instruction
system.cpu1.op_class::SimdShaSigma2                 0      0.00%     80.56% # Class of executed instruction
system.cpu1.op_class::SimdShaSigma3                 0      0.00%     80.56% # Class of executed instruction
system.cpu1.op_class::SimdPredAlu                   0      0.00%     80.56% # Class of executed instruction
system.cpu1.op_class::MemRead                10590223     11.34%     91.89% # Class of executed instruction
system.cpu1.op_class::MemWrite                7085002      7.58%     99.48% # Class of executed instruction
system.cpu1.op_class::FloatMemRead             299136      0.32%     99.80% # Class of executed instruction
system.cpu1.op_class::FloatMemWrite            189289      0.20%    100.00% # Class of executed instruction
system.cpu1.op_class::IprAccess                     0      0.00%    100.00% # Class of executed instruction
system.cpu1.op_class::InstPrefetch                  0      0.00%    100.00% # Class of executed instruction
system.cpu1.op_class::total                  93416416                       # Class of executed instruction
system.cpu1.pwrStateResidencyTicks::ON   184991687000                       # Cumulative time (in ticks) in various power states
system.cpu1.workload.numSyscalls                   56                       # Number of system calls
system.cpu2.Branches                         11259385                       # Number of branches fetched
system.cpu2.committedInsts                   49947085                       # Number of instructions committed
system.cpu2.committedOps                     93316519                       # Number of ops (including micro ops) committed
system.cpu2.dcache.ReadReq_accesses::.cpu2.data     10883823                       # number of ReadReq accesses(hits+misses)
system.cpu2.dcache.ReadReq_accesses::total     10883823                       # number of ReadReq accesses(hits+misses)
system.cpu2.dcache.ReadReq_avg_miss_latency::.cpu2.data 104961.108079                       # average ReadReq miss latency
system.cpu2.dcache.ReadReq_avg_miss_latency::total 104961.108079                       # average ReadReq miss latency
system.cpu2.dcache.ReadReq_avg_mshr_miss_latency::.cpu2.data 102961.108079                       # average ReadReq mshr miss latency
system.cpu2.dcache.ReadReq_avg_mshr_miss_latency::total 102961.108079                       # average ReadReq mshr miss latency
system.cpu2.dcache.ReadReq_hits::.cpu2.data     10869167                       # number of ReadReq hits
system.cpu2.dcache.ReadReq_hits::total       10869167                       # number of ReadReq hits
system.cpu2.dcache.ReadReq_miss_latency::.cpu2.data   1538310000                       # number of ReadReq miss cycles
system.cpu2.dcache.ReadReq_miss_latency::total   1538310000                       # number of ReadReq miss cycles
system.cpu2.dcache.ReadReq_miss_rate::.cpu2.data     0.001347                       # miss rate for ReadReq accesses
system.cpu2.dcache.ReadReq_miss_rate::total     0.001347                       # miss rate for ReadReq accesses
system.cpu2.dcache.ReadReq_misses::.cpu2.data        14656                       # number of ReadReq misses
system.cpu2.dcache.ReadReq_misses::total        14656                       # number of ReadReq misses
system.cpu2.dcache.ReadReq_mshr_miss_latency::.cpu2.data   1508998000                       # number of ReadReq MSHR miss cycles
system.cpu2.dcache.ReadReq_mshr_miss_latency::total   1508998000                       # number of ReadReq MSHR miss cycles
system.cpu2.dcache.ReadReq_mshr_miss_rate::.cpu2.data     0.001347                       # mshr miss rate for ReadReq accesses
system.cpu2.dcache.ReadReq_mshr_miss_rate::total     0.001347                       # mshr miss rate for ReadReq accesses
system.cpu2.dcache.ReadReq_mshr_misses::.cpu2.data        14656                       # number of ReadReq MSHR misses
system.cpu2.dcache.ReadReq_mshr_misses::total        14656                       # number of ReadReq MSHR misses
system.cpu2.dcache.WriteReq_accesses::.cpu2.data      7266694                       # number of WriteReq accesses(hits+misses)
system.cpu2.dcache.WriteReq_accesses::total      7266694                       # number of WriteReq accesses(hits+misses)
system.cpu2.dcache.WriteReq_avg_miss_latency::.cpu2.data 130796.269174                       # average WriteReq miss latency
system.cpu2.dcache.WriteReq_avg_miss_latency::total 130796.269174                       # average WriteReq miss latency
system.cpu2.dcache.WriteReq_avg_mshr_miss_latency::.cpu2.data 128796.269174                       # average WriteReq mshr miss latency
system.cpu2.dcache.WriteReq_avg_mshr_miss_latency::total 128796.269174                       # average WriteReq mshr miss latency
system.cpu2.dcache.WriteReq_hits::.cpu2.data      7214802                       # number of WriteReq hits
system.cpu2.dcache.WriteReq_hits::total       7214802                       # number of WriteReq hits
system.cpu2.dcache.WriteReq_miss_latency::.cpu2.data   6787280000                       # number of WriteReq miss cycles
system.cpu2.dcache.WriteReq_miss_latency::total   6787280000                       # number of WriteReq miss cycles
system.cpu2.dcache.WriteReq_miss_rate::.cpu2.data     0.007141                       # miss rate for WriteReq accesses
system.cpu2.dcache.WriteReq_miss_rate::total     0.007141                       # miss rate for WriteReq accesses
system.cpu2.dcache.WriteReq_misses::.cpu2.data        51892                       # number of WriteReq misses
system.cpu2.dcache.WriteReq_misses::total        51892                       # number of WriteReq misses
system.cpu2.dcache.WriteReq_mshr_miss_latency::.cpu2.data   6683496000                       # number of WriteReq MSHR miss cycles
system.cpu2.dcache.WriteReq_mshr_miss_latency::total   6683496000                       # number of WriteReq MSHR miss cycles
system.cpu2.dcache.WriteReq_mshr_miss_rate::.cpu2.data     0.007141                       # mshr miss rate for WriteReq accesses
system.cpu2.dcache.WriteReq_mshr_miss_rate::total     0.007141                       # mshr miss rate for WriteReq accesses
system.cpu2.dcache.WriteReq_mshr_misses::.cpu2.data        51892                       # number of WriteReq MSHR misses
system.cpu2.dcache.WriteReq_mshr_misses::total        51892                       # number of WriteReq MSHR misses
system.cpu2.dcache.avg_blocked_cycles::no_mshrs          nan                       # average number of cycles each access was blocked
system.cpu2.dcache.avg_blocked_cycles::no_targets          nan                       # average number of cycles each access was blocked
system.cpu2.dcache.blocked::no_mshrs                0                       # number of cycles access was blocked
system.cpu2.dcache.blocked::no_targets              0                       # number of cycles access was blocked
system.cpu2.dcache.blocked_cycles::no_mshrs            0                       # number of cycles access was blocked
system.cpu2.dcache.blocked_cycles::no_targets            0                       # number of cycles access was blocked
system.cpu2.dcache.demand_accesses::.cpu2.data     18150517                       # number of demand (read+write) accesses
system.cpu2.dcache.demand_accesses::total     18150517                       # number of demand (read+write) accesses
system.cpu2.dcache.demand_avg_miss_latency::.cpu2.data 125106.539641                       # average overall miss latency
system.cpu2.dcache.demand_avg_miss_latency::total 125106.539641                       # average overall miss latency
system.cpu2.dcache.demand_avg_mshr_miss_latency::.cpu2.data 123106.539641                       # average overall mshr miss latency
system.cpu2.dcache.demand_avg_mshr_miss_latency::total 123106.539641                       # average overall mshr miss latency
system.cpu2.dcache.demand_hits::.cpu2.data     18083969                       # number of demand (read+write) hits
system.cpu2.dcache.demand_hits::total        18083969                       # number of demand (read+write) hits
system.cpu2.dcache.demand_miss_latency::.cpu2.data   8325590000                       # number of demand (read+write) miss cycles
system.cpu2.dcache.demand_miss_latency::total   8325590000                       # number of demand (read+write) miss cycles
system.cpu2.dcache.demand_miss_rate::.cpu2.data     0.003666                       # miss rate for demand accesses
system.cpu2.dcache.demand_miss_rate::total     0.003666                       # miss rate for demand accesses
system.cpu2.dcache.demand_misses::.cpu2.data        66548                       # number of demand (read+write) misses
system.cpu2.dcache.demand_misses::total         66548                       # number of demand (read+write) misses
system.cpu2.dcache.demand_mshr_miss_latency::.cpu2.data   8192494000                       # number of demand (read+write) MSHR miss cycles
system.cpu2.dcache.demand_mshr_miss_latency::total   8192494000                       # number of demand (read+write) MSHR miss cycles
system.cpu2.dcache.demand_mshr_miss_rate::.cpu2.data     0.003666                       # mshr miss rate for demand accesses
system.cpu2.dcache.demand_mshr_miss_rate::total     0.003666                       # mshr miss rate for demand accesses
system.cpu2.dcache.demand_mshr_misses::.cpu2.data        66548                       # number of demand (read+write) MSHR misses
system.cpu2.dcache.demand_mshr_misses::total        66548                       # number of demand (read+write) MSHR misses
system.cpu2.dcache.overall_accesses::.cpu2.data     18150517                       # number of overall (read+write) accesses
system.cpu2.dcache.overall_accesses::total     18150517                       # number of overall (read+write) accesses
system.cpu2.dcache.overall_avg_miss_latency::.cpu2.data 125106.539641                       # average overall miss latency
system.cpu2.dcache.overall_avg_miss_latency::total 125106.539641                       # average overall miss latency
system.cpu2.dcache.overall_avg_mshr_miss_latency::.cpu2.data 123106.539641                       # average overall mshr miss latency
system.cpu2.dcache.overall_avg_mshr_miss_latency::total 123106.539641                       # average overall mshr miss latency
system.cpu2.dcache.overall_hits::.cpu2.data     18083969                       # number of overall hits
system.cpu2.dcache.overall_hits::total       18083969                       # number of overall hits
system.cpu2.dcache.overall_miss_latency::.cpu2.data   8325590000                       # number of overall miss cycles
system.cpu2.dcache.overall_miss_latency::total   8325590000                       # number of overall miss cycles
system.cpu2.dcache.overall_miss_rate::.cpu2.data     0.003666                       # miss rate for overall accesses
system.cpu2.dcache.overall_miss_rate::total     0.003666                       # miss rate for overall accesses
system.cpu2.dcache.overall_misses::.cpu2.data        66548                       # number of overall misses
system.cpu2.dcache.overall_misses::total        66548                       # number of overall misses
system.cpu2.dcache.overall_mshr_miss_latency::.cpu2.data   8192494000                       # number of overall MSHR miss cycles
system.cpu2.dcache.overall_mshr_miss_latency::total   8192494000                       # number of overall MSHR miss cycles
system.cpu2.dcache.overall_mshr_miss_rate::.cpu2.data     0.003666                       # mshr miss rate for overall accesses
system.cpu2.dcache.overall_mshr_miss_rate::total     0.003666                       # mshr miss rate for overall accesses
system.cpu2.dcache.overall_mshr_misses::.cpu2.data        66548                       # number of overall MSHR misses
system.cpu2.dcache.overall_mshr_misses::total        66548                       # number of overall MSHR misses
system.cpu2.dcache.pwrStateResidencyTicks::UNDEFINED 184991687000                       # Cumulative time (in ticks) in various power states
system.cpu2.dcache.replacements                 65524                       # number of replacements
system.cpu2.dcache.tags.age_task_id_blocks_1024::0            1                       # Occupied blocks per task id
[...]
system.mem_ctrl.totGap                   184986087000                       # Total gap between requests
system.mem_ctrl.totMemAccLat              13291403517                       # Total ticks spent from burst creation until serviced by the DRAM
system.mem_ctrl.totQLat                    8394709767                       # Total ticks spent queuing
system.mem_ctrl.wrPerTurnAround::samples        13452                       # Writes before turning the bus around for reads
system.mem_ctrl.wrPerTurnAround::mean       17.760333                       # Writes before turning the bus around for reads
system.mem_ctrl.wrPerTurnAround::gmean      17.726697                       # Writes before turning the bus around for reads
system.mem_ctrl.wrPerTurnAround::stdev       1.086180                       # Writes before turning the bus around for reads
system.mem_ctrl.wrPerTurnAround::16              2972     22.09%     22.09% # Writes before turning the bus around for reads
system.mem_ctrl.wrPerTurnAround::17               173      1.29%     23.38% # Writes before turning the bus around for reads
system.mem_ctrl.wrPerTurnAround::18              8095     60.18%     83.56% # Writes before turning the bus around for reads
system.mem_ctrl.wrPerTurnAround::19              1672     12.43%     95.99% # Writes before turning the bus around for reads
system.mem_ctrl.wrPerTurnAround::20               420      3.12%     99.11% # Writes before turning the bus around for reads
system.mem_ctrl.wrPerTurnAround::21               100      0.74%     99.85% # Writes before turning the bus around for reads
system.mem_ctrl.wrPerTurnAround::22                19      0.14%     99.99% # Writes before turning the bus around for reads
system.mem_ctrl.wrPerTurnAround::23                 1      0.01%    100.00% # Writes before turning the bus around for reads
system.mem_ctrl.wrPerTurnAround::total          13452                       # Writes before turning the bus around for reads
system.mem_ctrl.wrQLenPdf::0                        1                       # What write queue length does an incoming req see
system.mem_ctrl.wrQLenPdf::1                        1                       # What write queue length does an incoming req see
system.mem_ctrl.wrQLenPdf::2                        1                       # What write queue length does an incoming req see
system.mem_ctrl.wrQLenPdf::3                        1                       # What write queue length does an incoming req see
system.mem_ctrl.wrQLenPdf::4                        1                       # What write queue length does an incoming req see
system.mem_ctrl.wrQLenPdf::5                        1                       # What write queue length does an incoming req see
system.mem_ctrl.wrQLenPdf::6                        1                       # What write queue length does an incoming req see
system.mem_ctrl.wrQLenPdf::7                        1                       # What write queue length does an incoming req see
system.mem_ctrl.wrQLenPdf::8                        1                       # What write queue length does an incoming req see
system.mem_ctrl.wrQLenPdf::9                        1                       # What write queue length does an incoming req see
system.mem_ctrl.wrQLenPdf::10                       1                       # What write queue length does an incoming req see
system.mem_ctrl.wrQLenPdf::11                       1                       # What write queue length does an incoming req see
system.mem_ctrl.wrQLenPdf::12                       1                       # What write queue length does an incoming req see
system.mem_ctrl.wrQLenPdf::13                       1                       # What write queue length does an incoming req see
system.mem_ctrl.wrQLenPdf::14                       1                       # What write queue length does an incoming req see
system.mem_ctrl.wrQLenPdf::15                   10236                       # What write queue length does an incoming req see
system.mem_ctrl.wrQLenPdf::16                   10555                       # What write queue length does an incoming req see
system.mem_ctrl.wrQLenPdf::17                   12832                       # What write queue length does an incoming req see
system.mem_ctrl.wrQLenPdf::18                   13392                       # What write queue length does an incoming req see
system.mem_ctrl.wrQLenPdf::19                   13539                       # What write queue length does an incoming req see
system.mem_ctrl.wrQLenPdf::20                   13632                       # What write queue length does an incoming req see
system.mem_ctrl.wrQLenPdf::21                   13641                       # What write queue length does an incoming req see
system.mem_ctrl.wrQLenPdf::22                   13602                       # What write queue length does an incoming req see
system.mem_ctrl.wrQLenPdf::23                   13601                       # What write queue length does an incoming req see
system.mem_ctrl.wrQLenPdf::24                   13583                       # What write queue length does an incoming req see
system.mem_ctrl.wrQLenPdf::25                   13558                       # What write queue length does an incoming req see
system.mem_ctrl.wrQLenPdf::26                   13712                       # What write queue length does an incoming req see
system.mem_ctrl.wrQLenPdf::27                   13673                       # What write queue length does an incoming req see
system.mem_ctrl.wrQLenPdf::28                   13886                       # What write queue length does an incoming req see
system.mem_ctrl.wrQLenPdf::29                   15000                       # What write queue length does an incoming req see
system.mem_ctrl.wrQLenPdf::30                   13529                       # What write queue length does an incoming req see
system.mem_ctrl.wrQLenPdf::31                   13468                       # What write queue length does an incoming req see
system.mem_ctrl.wrQLenPdf::32                   13464                       # What write queue length does an incoming req see
system.mem_ctrl.wrQLenPdf::33                      19                       # What write queue length does an incoming req see
system.mem_ctrl.wrQLenPdf::34                       1                       # What write queue length does an incoming req see
system.mem_ctrl.wrQLenPdf::35                       0                       # What write queue length does an incoming req see
system.mem_ctrl.wrQLenPdf::36                       0                       # What write queue length does an incoming req see
system.mem_ctrl.wrQLenPdf::37                       0                       # What write queue length does an incoming req see
system.mem_ctrl.wrQLenPdf::38                       0                       # What write queue length does an incoming req see
system.mem_ctrl.wrQLenPdf::39                       0                       # What write queue length does an incoming req see
system.mem_ctrl.wrQLenPdf::40                       0                       # What write queue length does an incoming req see
system.mem_ctrl.wrQLenPdf::41                       0                       # What write queue length does an incoming req see
system.mem_ctrl.wrQLenPdf::42                       0                       # What write queue length does an incoming req see
system.mem_ctrl.wrQLenPdf::43                       0                       # What write queue length does an incoming req see
system.mem_ctrl.wrQLenPdf::44                       0                       # What write queue length does an incoming req see
system.mem_ctrl.wrQLenPdf::45                       0                       # What write queue length does an incoming req see
system.mem_ctrl.wrQLenPdf::46                       0                       # What write queue length does an incoming req see
system.mem_ctrl.wrQLenPdf::47                       0                       # What write queue length does an incoming req see
system.mem_ctrl.wrQLenPdf::48                       0                       # What write queue length does an incoming req see
system.mem_ctrl.wrQLenPdf::49                       0                       # What write queue length does an incoming req see
system.mem_ctrl.wrQLenPdf::50                       0                       # What write queue length does an incoming req see
system.mem_ctrl.wrQLenPdf::51                       0                       # What write queue length does an incoming req see
system.mem_ctrl.wrQLenPdf::52                       0                       # What write queue length does an incoming req see
system.mem_ctrl.wrQLenPdf::53                       0                       # What write queue length does an incoming req see
system.mem_ctrl.wrQLenPdf::54                       0                       # What write queue length does an incoming req see
system.mem_ctrl.wrQLenPdf::55                       0                       # What write queue length does an incoming req see
system.mem_ctrl.wrQLenPdf::56                       0                       # What write queue length does an incoming req see
system.mem_ctrl.wrQLenPdf::57                       0                       # What write queue length does an incoming req see
system.mem_ctrl.wrQLenPdf::58                       0                       # What write queue length does an incoming req see
system.mem_ctrl.wrQLenPdf::59                       0                       # What write queue length does an incoming req see
system.mem_ctrl.wrQLenPdf::60                       0                       # What write queue length does an incoming req see
system.mem_ctrl.wrQLenPdf::61                       0                       # What write queue length does an incoming req see
system.mem_ctrl.wrQLenPdf::62                       0                       # What write queue length does an incoming req see
system.mem_ctrl.wrQLenPdf::63                       0                       # What write queue length does an incoming req see
system.mem_ctrl.writeBursts                    238938                       # Number of DRAM write bursts, including those merged in the write queue
system.mem_ctrl.writePktSize::0                     0                       # Write request sizes (log2)
system.mem_ctrl.writePktSize::1                     0                       # Write request sizes (log2)
system.mem_ctrl.writePktSize::2                     0                       # Write request sizes (log2)
system.mem_ctrl.writePktSize::3                     0                       # Write request sizes (log2)
system.mem_ctrl.writePktSize::4                     0                       # Write request sizes (log2)
system.mem_ctrl.writePktSize::5                     0                       # Write request sizes (log2)
system.mem_ctrl.writePktSize::6                238938                       # Write request sizes (log2)
system.mem_ctrl.writeReqs                      238938                       # Number of write requests accepted
system.mem_ctrl.writeRowHitRate                 56.25                       # Row buffer hit rate for writes
system.mem_ctrl.writeRowHits                   134405                       # Number of row buffer hits during writes
system.mem_ctrl_0.actBackEnergy           67285477290                       # Energy for active background per rank (pJ)
system.mem_ctrl_0.actEnergy                1017278640                       # Energy for activate commands per rank (pJ)
system.mem_ctrl_0.actPowerDownEnergy                0                       # Energy for active power-down per rank (pJ)
system.mem_ctrl_0.averagePower             536.951018                       # Core power per rank (mW)
system.mem_ctrl_0.memoryStateTime::IDLE   36756578968                       # Time in different power states
system.mem_ctrl_0.memoryStateTime::REF     6177080000                       # Time in different power states
system.mem_ctrl_0.memoryStateTime::SREF             0                       # Time in different power states
system.mem_ctrl_0.memoryStateTime::PRE_PDN            0                       # Time in different power states
system.mem_ctrl_0.memoryStateTime::ACT   142058028032                       # Time in different power states
system.mem_ctrl_0.memoryStateTime::ACT_PDN            0                       # Time in different power states
system.mem_ctrl_0.preBackEnergy           14375353440                       # Energy for precharge background per rank (pJ)
system.mem_ctrl_0.preEnergy                 540681240                       # Energy for precharge commands per rank (pJ)
system.mem_ctrl_0.prePowerDownEnergy                0                       # Energy for precharge power-down per rank (pJ)
system.mem_ctrl_0.readEnergy                886188240                       # Energy for read commands per rank (pJ)
system.mem_ctrl_0.refreshEnergy          14602617120.000002                       # Energy for refresh commands per rank (pJ)
system.mem_ctrl_0.selfRefreshEnergy                 0                       # Energy for self refresh per rank (pJ)
system.mem_ctrl_0.totalEnergy             99331474710                       # Total energy per rank (pJ)
system.mem_ctrl_0.totalIdleTime                     0                       # Total Idle time Per DRAM Rank
system.mem_ctrl_0.writeEnergy               623878740                       # Energy for write commands per rank (pJ)
system.mem_ctrl_1.actBackEnergy           69829698510                       # Energy for active background per rank (pJ)
system.mem_ctrl_1.actEnergy                1104579420                       # Energy for activate commands per rank (pJ)
system.mem_ctrl_1.actPowerDownEnergy                0                       # Energy for active power-down per rank (pJ)
system.mem_ctrl_1.averagePower             540.340815                       # Core power per rank (mW)
system.mem_ctrl_1.memoryStateTime::IDLE   31165486853                       # Time in different power states
system.mem_ctrl_1.memoryStateTime::REF     6177080000                       # Time in different power states
system.mem_ctrl_1.memoryStateTime::SREF             0                       # Time in different power states
system.mem_ctrl_1.memoryStateTime::PRE_PDN            0                       # Time in different power states
system.mem_ctrl_1.memoryStateTime::ACT   147649120147                       # Time in different power states
system.mem_ctrl_1.memoryStateTime::ACT_PDN            0                       # Time in different power states
system.mem_ctrl_1.preBackEnergy           12232851360                       # Energy for precharge background per rank (pJ)
system.mem_ctrl_1.preEnergy                 587097885                       # Energy for precharge commands per rank (pJ)
system.mem_ctrl_1.prePowerDownEnergy                0                       # Energy for precharge power-down per rank (pJ)
system.mem_ctrl_1.readEnergy                978472740                       # Energy for read commands per rank (pJ)
system.mem_ctrl_1.refreshEnergy          14602617120.000002                       # Energy for refresh commands per rank (pJ)
system.mem_ctrl_1.selfRefreshEnergy                 0                       # Energy for self refresh per rank (pJ)
system.mem_ctrl_1.totalEnergy             99958558935                       # Total energy per rank (pJ)
system.mem_ctrl_1.totalIdleTime                     0                       # Total Idle time Per DRAM Rank
system.mem_ctrl_1.writeEnergy               623241900                       # Energy for write commands per rank (pJ)
system.membus.pkt_count_system.l2cache.mem_side::system.mem_ctrl.port       776373                       # Packet count per connected master and slave (bytes)
system.membus.pkt_count_system.l2cache.mem_side::total       776373                       # Packet count per connected master and slave (bytes)
system.membus.pkt_count::total                 776373                       # Packet count per connected master and slave (bytes)
system.membus.pkt_size_system.l2cache.mem_side::system.mem_ctrl.port     32007488                       # Cumulative packet size per connected master and slave (bytes)
system.membus.pkt_size_system.l2cache.mem_side::total     32007488                       # Cumulative packet size per connected master and slave (bytes)
system.membus.pkt_size::total                32007488                       # Cumulative packet size per connected master and slave (bytes)
system.membus.pwrStateResidencyTicks::UNDEFINED 184991687000                       # Cumulative time (in ticks) in various power states
system.membus.reqLayer8.occupancy          1605904906                       # Layer occupancy (ticks)
system.membus.reqLayer8.utilization               0.9                       # Layer utilization (%)
system.membus.respLayer0.occupancy         1428356606                       # Layer occupancy (ticks)
system.membus.respLayer0.utilization              0.8                       # Layer utilization (%)
system.membus.snoopTraffic                          0                       # Total snoop traffic (bytes)
system.membus.snoop_fanout::samples            261179                       # Request fanout histogram
system.membus.snoop_fanout::mean                    0                       # Request fanout histogram
system.membus.snoop_fanout::stdev                   0                       # Request fanout histogram
system.membus.snoop_fanout::underflows              0      0.00%      0.00% # Request fanout histogram
system.membus.snoop_fanout::0                  261179    100.00%    100.00% # Request fanout histogram
system.membus.snoop_fanout::1                       0      0.00%    100.00% # Request fanout histogram
system.membus.snoop_fanout::overflows               0      0.00%    100.00% # Request fanout histogram
system.membus.snoop_fanout::min_value               0                       # Request fanout histogram
system.membus.snoop_fanout::max_value               0                       # Request fanout histogram
system.membus.snoop_fanout::total              261179                       # Request fanout histogram
system.membus.snoop_filter.hit_multi_requests            0                       # Number of requests hitting in the snoop filter with multiple (>1) holders of the requested data.
system.membus.snoop_filter.hit_multi_snoops            0                       # Number of snoops hitting in the snoop filter with multiple (>1) holders of the requested data.
system.membus.snoop_filter.hit_single_requests       254015                       # Number of requests hitting in the snoop filter with a single holder of the requested data.
system.membus.snoop_filter.hit_single_snoops            0                       # Number of snoops hitting in the snoop filter with a single holder of the requested data.
system.membus.snoop_filter.tot_requests        515194                       # Total number of requests made to the snoop filter.
system.membus.snoop_filter.tot_snoops               0                       # Total number of snoops made to the snoop filter.
system.membus.snoops                                0                       # Total snoops (count)
system.membus.trans_dist::ReadResp              54302                       # Transaction distribution
system.membus.trans_dist::WritebackDirty       238938                       # Transaction distribution
system.membus.trans_dist::CleanEvict            15077                       # Transaction distribution
system.membus.trans_dist::ReadExReq            206877                       # Transaction distribution
system.membus.trans_dist::ReadExResp           206877                       # Transaction distribution
system.membus.trans_dist::ReadSharedReq         54302                       # Transaction distribution

---------- End Simulation Statistics   ----------
