
---------- Begin Simulation Statistics ----------
final_tick                               186042832000                       # Number of ticks from beginning of simulation (restored from checkpoints and never reset)
host_inst_rate                                 357195                       # Simulator instruction rate (inst/s)
host_mem_usage                                 809648                       # Number of bytes of host memory used
host_op_rate                                   609972                       # Simulator op (including micro ops) rate (op/s)
host_seconds                                   438.23                       # Real time elapsed on the host
host_tick_rate                              424536100                       # Simulator tick rate (ticks/s)
sim_freq                                 1000000000000                       # Frequency of simulated ticks
sim_insts                                   156532260                       # Number of instructions simulated
sim_ops                                     267305618                       # Number of ops (including micro ops) simulated
sim_seconds                                  0.186043                       # Number of seconds simulated
sim_ticks                                186042832000                       # Number of ticks simulated
system.clk_domain.clock                          1000                       # Clock period in ticks
system.clk_domain.voltage_domain.voltage            1                       # Voltage in Volts
system.cpu0.Branches                         11269226                       # Number of branches fetched
system.cpu0.committedInsts                   49989403                       # Number of instructions committed
system.cpu0.committedOps                     93396407                       # Number of ops (including micro ops) committed
system.cpu0.dcache.ReadReq_accesses::.cpu0.data     10892790                       # number of ReadReq accesses(hits+misses)
system.cpu0.dcache.ReadReq_accesses::total     10892790                       # number of ReadReq accesses(hits+misses)
system.cpu0.dcache.ReadReq_avg_miss_latency::.cpu0.data 114050.056430                       # average ReadReq miss latency
system.cpu0.dcache.ReadReq_avg_miss_latency::total 114050.056430                       # average ReadReq miss latency
system.cpu0.dcache.ReadReq_avg_mshr_miss_latency::.cpu0.data 112050.056430                       # average ReadReq mshr miss latency
system.cpu0.dcache.ReadReq_avg_mshr_miss_latency::total 112050.056430                       # average ReadReq mshr miss latency
system.cpu0.dcache.ReadReq_hits::.cpu0.data     10877727                       # number of ReadReq hits
system.cpu0.dcache.ReadReq_hits::total       10877727                       # number of ReadReq hits
system.cpu0.dcache.ReadReq_miss_latency::.cpu0.data   1717936000                       # number of ReadReq miss cycles
system.cpu0.dcache.ReadReq_miss_latency::total   1717936000                       # number of ReadReq miss cycles
system.cpu0.dcache.ReadReq_miss_rate::.cpu0.data     0.001383                       # miss rate for ReadReq accesses
system.cpu0.dcache.ReadReq_miss_rate::total     0.001383                       # miss rate for ReadReq accesses
system.cpu0.dcache.ReadReq_misses::.cpu0.data        15063                       # number of ReadReq misses
system.cpu0.dcache.ReadReq_misses::total        15063                       # number of ReadReq misses
system.cpu0.dcache.ReadReq_mshr_miss_latency::.cpu0.data   1687810000                       # number of ReadReq MSHR miss cycles
system.cpu0.dcache.ReadReq_mshr_miss_latency::total   1687810000                       # number of ReadReq MSHR miss cycles
system.cpu0.dcache.ReadReq_mshr_miss_rate::.cpu0.data     0.001383                       # mshr miss rate for ReadReq accesses
system.cpu0.dcache.ReadReq_mshr_miss_rate::total     0.001383                       # mshr miss rate for ReadReq accesses
system.cpu0.dcache.ReadReq_mshr_misses::.cpu0.data        15063                       # number of ReadReq MSHR misses
system.cpu0.dcache.ReadReq_mshr_misses::total        15063                       # number of ReadReq MSHR misses
system.cpu0.dcache.WriteReq_accesses::.cpu0.data      7272774                       # number of WriteReq accesses(hits+misses)
system.cpu0.dcache.WriteReq_accesses::total      7272774                       # number of WriteReq accesses(hits+misses)
system.cpu0.dcache.WriteReq_avg_miss_latency::.cpu0.data 139261.149549                       # average WriteReq miss latency
system.cpu0.dcache.WriteReq_avg_miss_latency::total 139261.149549                       # average WriteReq miss latency
system.cpu0.dcache.WriteReq_avg_mshr_miss_latency::.cpu0.data 137261.149549                       # average WriteReq mshr miss latency
system.cpu0.dcache.WriteReq_avg_mshr_miss_latency::total 137261.149549                       # average WriteReq mshr miss latency
system.cpu0.dcache.WriteReq_hits::.cpu0.data      7220597                       # number of WriteReq hits
system.cpu0.dcache.WriteReq_hits::total       7220597                       # number of WriteReq hits
system.cpu0.dcache.WriteReq_miss_latency::.cpu0.data   7266229000                       # number of WriteReq miss cycles
system.cpu0.dcache.WriteReq_miss_latency::total   7266229000                       # number of WriteReq miss cycles
system.cpu0.dcache.WriteReq_miss_rate::.cpu0.data     0.007174                       # miss rate for WriteReq accesses
system.cpu0.dcache.WriteReq_miss_rate::total     0.007174                       # miss rate for WriteReq accesses
system.cpu0.dcache.WriteReq_misses::.cpu0.data        52177                       # number of WriteReq misses
system.cpu0.dcache.WriteReq_misses::total        52177                       # number of WriteReq misses
system.cpu0.dcache.WriteReq_mshr_miss_latency::.cpu0.data   7161875000                       # number of WriteReq MSHR miss cycles
system.cpu0.dcache.WriteReq_mshr_miss_latency::total   7161875000                       # number of WriteReq MSHR miss cycles
system.cpu0.dcache.WriteReq_mshr_miss_rate::.cpu0.data     0.007174                       # mshr miss rate for WriteReq accesses
system.cpu0.dcache.WriteReq_mshr_miss_rate::total     0.007174                       # mshr miss rate for WriteReq accesses
system.cpu0.dcache.WriteReq_mshr_misses::.cpu0.data        52177                       # number of WriteReq MSHR misses
system.cpu0.dcache.WriteReq_mshr_misses::total        52177                       # number of WriteReq MSHR misses
system.cpu0.dcache.avg_blocked_cycles::no_mshrs          nan                       # average number of cycles each access was blocked
system.cpu0.dcache.avg_blocked_cycles::no_targets          nan                       # average number of cycles each access was blocked
system.cpu0.dcache.blocked::no_mshrs                0                       # number of cycles access was blocked
system.cpu0.dcache.blocked::no_targets              0                       # number of cycles access was blocked
system.cpu0.dcache.blocked_cycles::no_mshrs            0                       # number of cycles access was blocked
system.cpu0.dcache.blocked_cycles::no_targets            0                       # number of cycles access was blocked
system.cpu0.dcache.demand_accesses::.cpu0.data     18165564                       # number of demand (read+write) accesses
system.cpu0.dcache.demand_accesses::total     18165564                       # number of demand (read+write) accesses
system.cpu0.dcache.demand_avg_miss_latency::.cpu0.data 133613.399762                       # average overall miss latency
system.cpu0.dcache.demand_avg_miss_latency::total 133613.399762                       # average overall miss latency
system.cpu0.dcache.demand_avg_mshr_miss_latency::.cpu0.data 131613.399762                       # average overall mshr miss latency
system.cpu0.dcache.demand_avg_mshr_miss_latency::total 131613.399762                       # average overall mshr miss latency
system.cpu0.dcache.demand_hits::.cpu0.data     18098324                       # number of demand (read+write) hits
system.cpu0.dcache.demand_hits::total        18098324                       # number of demand (read+write) hits
system.cpu0.dcache.demand_miss_latency::.cpu0.data   8984165000                       # number of demand (read+write) miss cycles
system.cpu0.dcache.demand_miss_latency::total   8984165000                       # number of demand (read+write) miss cycles
system.cpu0.dcache.demand_miss_rate::.cpu0.data     0.003702                       # miss rate for demand accesses
system.cpu0.dcache.demand_miss_rate::total     0.003702                       # miss rate for demand accesses
system.cpu0.dcache.demand_misses::.cpu0.data        67240                       # number of demand (read+write) misses
system.cpu0.dcache.demand_misses::total         67240                       # number of demand (read+write) misses
system.cpu0.dcache.demand_mshr_miss_latency::.cpu0.data   8849685000                       # number of demand (read+write) MSHR miss cycles
system.cpu0.dcache.demand_mshr_miss_latency::total   8849685000                       # number of demand (read+write) MSHR miss cycles
system.cpu0.dcache.demand_mshr_miss_rate::.cpu0.data     0.003702                       # mshr miss rate for demand accesses
system.cpu0.dcache.demand_mshr_miss_rate::total     0.003702                       # mshr miss rate for demand accesses
system.cpu0.dcache.demand_mshr_misses::.cpu0.data        67240                       # number of demand (read+write) MSHR misses
system.cpu0.dcache.demand_mshr_misses::total        67240                       # number of demand (read+write) MSHR misses
system.cpu0.dcache.overall_accesses::.cpu0.data     18165564                       # number of overall (read+write) accesses
system.cpu0.dcache.overall_accesses::total     18165564                       # number of overall (read+write) accesses
system.cpu0.dcache.overall_avg_miss_latency::.cpu0.data 133613.399762                       # average overall miss latency
system.cpu0.dcache.overall_avg_miss_latency::total 133613.399762                       # average overall miss latency
system.cpu0.dcache.overall_avg_mshr_miss_latency::.cpu0.data 131613.399762                       # average overall mshr miss latency
system.cpu0.dcache.overall_avg_mshr_miss_latency::total 131613.399762                       # average overall mshr miss latency
system.cpu0.dcache.overall_hits::.cpu0.data     18098324                       # number of overall hits
system.cpu0.dcache.overall_hits::total       18098324                       # number of overall hits
system.cpu0.dcache.overall_miss_latency::.cpu0.data   8984165000                       # number of overall miss cycles
system.cpu0.dcache.overall_miss_latency::total   8984165000                       # number of overall miss cycles
system.cpu0.dcache.overall_miss_rate::.cpu0.data     0.003702                       # miss rate for overall accesses
system.cpu0.dcache.overall_miss_rate::total     0.003702                       # miss rate for overall accesses
system.cpu0.dcache.overall_misses::.cpu0.data        67240                       # number of overall misses
system.cpu0.dcache.overall_misses::total        67240                       # number of overall misses
system.cpu0.dcache.overall_mshr_miss_latency::.cpu0.data   8849685000                       # number of overall MSHR miss cycles
system.cpu0.dcache.overall_mshr_miss_latency::total   8849685000                       # number of overall MSHR miss cycles
system.cpu0.dcache.overall_mshr_miss_rate::.cpu0.data     0.003702                       # mshr miss rate for overall accesses
system.cpu0.dcache.overall_mshr_miss_rate::total     0.003702                       # mshr miss rate for overall accesses
system.cpu0.dcache.overall_mshr_misses::.cpu0.data        67240                       # number of overall MSHR misses
system.cpu0.dcache.overall_mshr_misses::total        67240                       # number of overall MSHR misses
system.cpu0.dcache.pwrStateResidencyTicks::UNDEFINED 186042832000                       # Cumulative time (in ticks) in various power states
system.cpu0.dcache.replacements                 66216                       # number of replacements
system.cpu0.dcache.tags.age_task_id_blocks_1024::0            1                       # Occupied blocks per task id
system.cpu0.dcache.tags.age_task_id_blocks_1024::1           16                       # Occupied blocks per task id
system.cpu0.dcache.tags.age_task_id_blocks_1024::2          174                       # Occupied blocks per task id
system.cpu0.dcache.tags.age_task_id_blocks_1024::3          764                       # Occupied blocks per task id
system.cpu0.dcache.tags.age_task_id_blocks_1024::4           69                       # Occupied blocks per task id
system.cpu0.dcache.tags.avg_refs           270.160083                       # Average number of references to valid blocks.
system.cpu0.dcache.tags.data_accesses        36398368                       # Number of data accesses
system.cpu0.dcache.tags.occ_blocks::.cpu0.data  1019.953217                       # Average occupied blocks per requestor
system.cpu0.dcache.tags.occ_percent::.cpu0.data     0.996048                       # Average percentage of cache occupancy
system.cpu0.dcache.tags.occ_percent::total     0.996048                       # Average percentage of cache occupancy
system.cpu0.dcache.tags.occ_task_id_blocks::1024         1024                       # Occupied blocks per task id
system.cpu0.dcache.tags.occ_task_id_percent::1024            1                       # Percentage of cache occupancy per task id
system.cpu0.dcache.tags.pwrStateResidencyTicks::UNDEFINED 186042832000                       # Cumulative time (in ticks) in various power states
system.cpu0.dcache.tags.sampled_refs            67240                       # Sample count of references to valid blocks.
system.cpu0.dcache.tags.tag_accesses         36398368                       # Number of tag accesses
system.cpu0.dcache.tags.tagsinuse         1019.953217                       # Cycle average of tags in use
system.cpu0.dcache.tags.total_refs           18165564                       # Total number of references to valid blocks.
system.cpu0.dcache.tags.warmup_cycle           220000                       # Cycle when the warmup percentage was hit.
system.cpu0.dcache.writebacks::.writebacks        62727                       # number of writebacks
system.cpu0.dcache.writebacks::total            62727                       # number of writebacks
system.cpu0.dtb.rdAccesses                   10892790                       # TLB accesses on read requests
system.cpu0.dtb.rdMisses                         9255                       # TLB misses on read requests
system.cpu0.dtb.walker.pwrStateResidencyTicks::UNDEFINED 186042832000                       # Cumulative time (in ticks) in various power states
system.cpu0.dtb.wrAccesses                    7272774                       # TLB accesses on write requests
system.cpu0.dtb.wrMisses                          902                       # TLB misses on write requests
system.cpu0.icache.ReadReq_accesses::.cpu0.inst     67549917                       # number of ReadReq accesses(hits+misses)
system.cpu0.icache.ReadReq_accesses::total     67549917                       # number of ReadReq accesses(hits+misses)
system.cpu0.icache.ReadReq_avg_miss_latency::.cpu0.inst 27560.101746                       # average ReadReq miss latency
system.cpu0.icache.ReadReq_avg_miss_latency::total 27560.101746                       # average ReadReq miss latency
system.cpu0.icache.ReadReq_avg_mshr_miss_latency::.cpu0.inst 25560.101746                       # average ReadReq mshr miss latency
system.cpu0.icache.ReadReq_avg_mshr_miss_latency::total 25560.101746                       # average ReadReq mshr miss latency
system.cpu0.icache.ReadReq_hits::.cpu0.inst     67324258                       # number of ReadReq hits
system.cpu0.icache.ReadReq_hits::total       67324258                       # number of ReadReq hits
system.cpu0.icache.ReadReq_miss_latency::.cpu0.inst   6219185000                       # number of ReadReq miss cycles
system.cpu0.icache.ReadReq_miss_latency::total   6219185000                       # number of ReadReq miss cycles
system.cpu0.icache.ReadReq_miss_rate::.cpu0.inst     0.003341                       # miss rate for ReadReq accesses
system.cpu0.icache.ReadReq_miss_rate::total     0.003341                       # miss rate for ReadReq accesses
system.cpu0.icache.ReadReq_misses::.cpu0.inst       225659                       # number of ReadReq misses
system.cpu0.icache.ReadReq_misses::total       225659                       # number of ReadReq misses
system.cpu0.icache.ReadReq_mshr_miss_latency::.cpu0.inst   5767867000                       # number of ReadReq MSHR miss cycles
system.cpu0.icache.ReadReq_mshr_miss_latency::total   5767867000                       # number of ReadReq MSHR miss cycles
system.cpu0.icache.ReadReq_mshr_miss_rate::.cpu0.inst     0.003341                       # mshr miss rate for ReadReq accesses
system.cpu0.icache.ReadReq_mshr_miss_rate::total     0.003341                       # mshr miss rate for ReadReq accesses
system.cpu0.icache.ReadReq_mshr_misses::.cpu0.inst       225659                       # number of ReadReq MSHR misses
system.cpu0.icache.ReadReq_mshr_misses::total       225659                       # number of ReadReq MSHR misses
system.cpu0.icache.avg_blocked_cycles::no_mshrs          nan                       # average number of cycles each access was blocked
system.cpu0.icache.avg_blocked_cycles::no_targets          nan                       # average number of cycles each access was blocked
system.cpu0.icache.blocked::no_mshrs                0                       # number of cycles access was blocked
system.cpu0.icache.blocked::no_targets              0                       # number of cycles access was blocked
system.cpu0.icache.blocked_cycles::no_mshrs            0                       # number of cycles access was blocked
system.cpu0.icache.blocked_cycles::no_targets            0                       # number of cycles access was blocked
system.cpu0.icache.demand_accesses::.cpu0.inst     67549917                       # number of demand (read+write) accesses
system.cpu0.icache.demand_accesses::total     67549917                       # number of demand (read+write) accesses
system.cpu0.icache.demand_avg_miss_latency::.cpu0.inst 27560.101746                       # average overall miss latency
system.cpu0.icache.demand_avg_miss_latency::total 27560.101746                       # average overall miss latency
system.cpu0.icache.demand_avg_mshr_miss_latency::.cpu0.inst 25560.101746                       # average overall mshr miss latency
system.cpu0.icache.demand_avg_mshr_miss_latency::total 25560.101746                       # average overall mshr miss latency
system.cpu0.icache.demand_hits::.cpu0.inst     67324258                       # number of demand (read+write) hits
system.cpu0.icache.demand_hits::total        67324258                       # number of demand (read+write) hits
system.cpu0.icache.demand_miss_latency::.cpu0.inst   6219185000                       # number of demand (read+write) miss cycles
system.cpu0.icache.demand_miss_latency::total   6219185000                       # number of demand (read+write) miss cycles
system.cpu0.icache.demand_miss_rate::.cpu0.inst     0.003341                       # miss rate for demand accesses
system.cpu0.icache.demand_miss_rate::total     0.003341                       # miss rate for demand accesses
system.cpu0.icache.demand_misses::.cpu0.inst       225659                       # number of demand (read+write) misses
system.cpu0.icache.demand_misses::total        225659                       # number of demand (read+write) misses
system.cpu0.icache.demand_mshr_miss_latency::.cpu0.inst   5767867000                       # number of demand (read+write) MSHR miss cycles
system.cpu0.icache.demand_mshr_miss_latency::total   5767867000                       # number of demand (read+write) MSHR miss cycles
system.cpu0.icache.demand_mshr_miss_rate::.cpu0.inst     0.003341                       # mshr miss rate for demand accesses
system.cpu0.icache.demand_mshr_miss_rate::total     0.003341                       # mshr miss rate for demand accesses
system.cpu0.icache.demand_mshr_misses::.cpu0.inst       225659                       # number of demand (read+write) MSHR misses
system.cpu0.icache.demand_mshr_misses::total       225659                       # number of demand (read+write) MSHR misses
system.cpu0.icache.overall_accesses::.cpu0.inst     67549917                       # number of overall (read+write) accesses
system.cpu0.icache.overall_accesses::total     67549917                       # number of overall (read+write) accesses
system.cpu0.icache.overall_avg_miss_latency::.cpu0.inst 27560.101746                       # average overall miss latency
system.cpu0.icache.overall_avg_miss_latency::total 27560.101746                       # average overall miss latency
system.cpu0.icache.overall_avg_mshr_miss_latency::.cpu0.inst 25560.101746                       # average overall mshr miss latency
system.cpu0.icache.overall_avg_mshr_miss_latency::total 25560.101746                       # average overall mshr miss latency
system.cpu0.icache.overall_hits::.cpu0.inst     67324258                       # number of overall hits
system.cpu0.icache.overall_hits::total       67324258                       # number of overall hits
system.cpu0.icache.overall_miss_latency::.cpu0.inst   6219185000                       # number of overall miss cycles
system.cpu0.icache.overall_miss_latency::total   6219185000                       # number of overall miss cycles
system.cpu0.icache.overall_miss_rate::.cpu0.inst     0.003341                       # miss rate for overall accesses
system.cpu0.icache.overall_miss_rate::total     0.003341                       # miss rate for overall accesses
system.cpu0.icache.overall_misses::.cpu0.inst       225659                       # number of overall misses
system.cpu0.icache.overall_misses::total       225659                       # number of overall misses
system.cpu0.icache.overall_mshr_miss_latency::.cpu0.inst   5767867000                       # number of overall MSHR miss cycles
system.cpu0.icache.overall_mshr_miss_latency::total   5767867000                       # number of overall MSHR miss cycles
system.cpu0.icache.overall_mshr_miss_rate::.cpu0.inst     0.003341                       # mshr miss rate for overall accesses
system.cpu0.icache.overall_mshr_miss_rate::total     0.003341                       # mshr miss rate for overall accesses
system.cpu0.icache.overall_mshr_misses::.cpu0.inst       225659                       # number of overall MSHR misses
system.cpu0.icache.overall_mshr_misses::total       225659                       # number of overall MSHR misses
system.cpu0.icache.pwrStateResidencyTicks::UNDEFINED 186042832000                       # Cumulative time (in ticks) in various power states
system.cpu0.icache.replacements                225406                       # number of replacements
system.cpu0.icache.tags.age_task_id_blocks_1024::0            6                       # Occupied blocks per task id
system.cpu0.icache.tags.age_task_id_blocks_1024::3           10                       # Occupied blocks per task id
system.cpu0.icache.tags.age_task_id_blocks_1024::4          237                       # Occupied blocks per task id
system.cpu0.icache.tags.avg_refs           299.345105                       # Average number of references to valid blocks.
system.cpu0.icache.tags.data_accesses       135325493                       # Number of data accesses
system.cpu0.icache.tags.occ_blocks::.cpu0.inst   252.703113                       # Average occupied blocks per requestor
system.cpu0.icache.tags.occ_percent::.cpu0.inst     0.987122                       # Average percentage of cache occupancy
system.cpu0.icache.tags.occ_percent::total     0.987122                       # Average percentage of cache occupancy
system.cpu0.icache.tags.occ_task_id_blocks::1024          253                       # Occupied blocks per task id
system.cpu0.icache.tags.occ_task_id_percent::1024     0.988281                       # Percentage of cache occupancy per task id
system.cpu0.icache.tags.pwrStateResidencyTicks::UNDEFINED 186042832000                       # Cumulative time (in ticks) in various power states
system.cpu0.icache.tags.sampled_refs           225659                       # Sample count of references to valid blocks.
system.cpu0.icache.tags.tag_accesses        135325493                       # Number of tag accesses
system.cpu0.icache.tags.tagsinuse          252.703113                       # Cycle average of tags in use
system.cpu0.icache.tags.total_refs           67549917                       # Total number of references to valid blocks.
system.cpu0.icache.tags.warmup_cycle           107000                       # Cycle when the warmup percentage was hit.
system.cpu0.idle_fraction                           0                       # Percentage of idle cycles
system.cpu0.interrupts.clk_domain.clock         16000                       # Clock period in ticks
system.cpu0.interrupts.pwrStateResidencyTicks::UNDEFINED 186042832000                       # Cumulative time (in ticks) in various power states
system.cpu0.itb.rdAccesses                          0                       # TLB accesses on read requests
system.cpu0.itb.rdMisses                            0                       # TLB misses on read requests
system.cpu0.itb.walker.pwrStateResidencyTicks::UNDEFINED 186042832000                       # Cumulative time (in ticks) in various power states
system.cpu0.itb.wrAccesses                   67549917                       # TLB accesses on write requests
system.cpu0.itb.wrMisses                          143                       # TLB misses on write requests
system.cpu0.not_idle_fraction                       1                       # Percentage of non-idle cycles
system.cpu0.numCycles                       186042831                       # number of cpu cycles simulated
system.cpu0.numWorkItemsCompleted                   0                       # number of work items this cpu completed
system.cpu0.numWorkItemsStarted                     0                       # number of work items this cpu started
system.cpu0.num_busy_cycles                 186042831                       # Number of busy cycles
system.cpu0.num_cc_register_reads            57987168                       # number of times the CC registers were read
system.cpu0.num_cc_register_writes           29704893                       # number of times the CC registers were written
system.cpu0.num_conditional_control_insts      9155445                       # number of instructions that are conditional controls
system.cpu0.num_fp_alu_accesses               1222181                       # Number of float alu accesses
system.cpu0.num_fp_insts                      1222181                       # number of float instructions
system.cpu0.num_fp_register_reads             1373538                       # number of times the floating registers were read
system.cpu0.num_fp_register_writes             922612                       # number of times the floating registers were written
system.cpu0.num_func_calls                     950622                       # number of times a function call or return occured
system.cpu0.num_idle_cycles                         0                       # Number of idle cycles
system.cpu0.num_int_alu_accesses             92651404                       # Number of integer alu accesses
system.cpu0.num_int_insts                    92651404                       # number of integer instructions
system.cpu0.num_int_register_reads          179341574                       # number of times the integer registers were read
system.cpu0.num_int_register_writes          74033709                       # number of times the integer registers were written
system.cpu0.num_load_insts                   10887114                       # Number of load instructions
system.cpu0.num_mem_refs                     18159885                       # number of memory refs
system.cpu0.num_store_insts                   7272771                       # Number of store instructions
system.cpu0.num_vec_alu_accesses                    0                       # Number of vector alu accesses
system.cpu0.num_vec_insts                           0                       # number of vector instructions
system.cpu0.num_vec_register_reads                  0                       # number of times the vector registers were read
system.cpu0.num_vec_register_writes                 0                       # number of times the vector registers were written
system.cpu0.op_class::No_OpClass               166615      0.18%      0.18% # Class of executed instruction
system.cpu0.op_class::IntAlu                 74162522     79.41%     79.58% # Class of executed instruction
system.cpu0.op_class::IntMult                  223337      0.24%     79.82% # Class of executed instruction
system.cpu0.op_class::IntDiv                       21      0.00%     79.82% # Class of executed instruction
system.cpu0.op_class::FloatAdd                 117268      0.13%     79.95% # Class of executed instruction
system.cpu0.op_class::FloatCmp                      0      0.00%     79.95% # Class of executed instruction
system.cpu0.op_class::FloatCvt                      0      0.00%     79.95% # Class of executed instruction
system.cpu0.op_class::FloatMult                     0      0.00%     79.95% # Class of executed instruction
system.cpu0.op_class::FloatMultAcc                  0      0.00%     79.95% # Class of executed instruction
system.cpu0.op_class::FloatDiv                      0      0.00%     79.95% # Class of executed instruction
system.cpu0.op_class::FloatMisc                     0      0.00%     79.95% # Class of executed instruction
system.cpu0.op_class::FloatSqrt                     0      0.00%     79.95% # Class of executed instruction
system.cpu0.op_class::SimdAdd                     374      0.00%     79.95% # Class of executed instruction
system.cpu0.op_class::SimdAddAcc                    0      0.00%     79.95% # Class of executed instruction
system.cpu0.op_class::SimdAlu                     100      0.00%     79.95% # Class of executed instruction
system.cpu0.op_class::SimdCmp                       0      0.00%     79.95% # Class of executed instruction
system.cpu0.op_class::SimdCvt                  110380      0.12%     80.07% # Class of executed instruction
system.cpu0.op_class::SimdMisc                 455719      0.49%     80.56% # Class of executed instruction
system.cpu0.op_class::SimdMult                      0      0.00%     80.56% # Class of executed instruction
system.cpu0.op_class::SimdMultAcc                   0      0.00%     80.56% # Class of executed instruction
system.cpu0.op_class::SimdShift                   186      0.00%     80.56% # Class of executed instruction
system.cpu0.op_class::SimdShiftAcc                  0      0.00%     80.56% # Class of executed instruction
system.cpu0.op_class::SimdDiv                       0      0.00%     80.56% # Class of executed instruction
system.cpu0.op_class::SimdSqrt                      0      0.00%     80.56% # Class of executed instruction
system.cpu0.op_class::SimdFloatAdd                  0      0.00%     80.56% # Class of executed instruction
system.cpu0.op_class::SimdFloatAlu                  0      0.00%     80.56% # Class of executed instruction
system.cpu0.op_class::SimdFloatCmp                  0      0.00%     80.56% # Class of executed instruction
system.cpu0.op_class::SimdFloatCvt                  0      0.00%     80.56% # Class of executed instruction
system.cpu0.op_class::SimdFloatDiv                  0      0.00%     80.56% # Class of executed instruction
system.cpu0.op_class::SimdFloatMisc                 0      0.00%     80.56% # Class of executed instruction
system.cpu0.op_class::SimdFloatMult                 0      0.00%     80.56% # Class of executed instruction
system.cpu0.op_class::SimdFloatMultAcc              0      0.00%     80.56% # Class of executed instruction
system.cpu0.op_class::SimdFloatSqrt                 0      0.00%     80.56% # Class of executed instruction
system.cpu0.op_class::SimdReduceAdd                 0      0.00%     80.56% # Class of executed instruction
system.cpu0.op_class::SimdReduceAlu                 0      0.00%     80.56% # Class of executed instruction
system.cpu0.op_class::SimdReduceCmp                 0      0.00%     80.56% # Class of executed instruction
system.cpu0.op_class::SimdFloatReduceAdd            0      0.00%     80.56% # Class of executed instruction
system.cpu0.op_class::SimdFloatReduceCmp            0      0.00%     80.56% # Class of executed instruction
system.cpu0.op_class::SimdAes                       0      0.00%     80.56% # Class of executed instruction
system.cpu0.op_class::SimdAesMix                    0      0.00%     80.56% # Class of executed instruction
system.cpu0.op_class::SimdSha1Hash                  0      0.00%     80.56% # Class of executed instruction
system.cpu0.op_class::SimdSha1Hash2                 0      0.00%     80.56% # Class of executed instruction
system.cpu0.op_class::SimdSha256Hash                0      0.00%     80.56% # Class of executed instruction
system.cpu0.op_class::SimdSha256Hash2               0      0.00%     80.56% # Class of executed instruction
system.cpu0.op_class::SimdShaSigma2                 0      0.00%     80.56% # Class of executed instruction
system.cpu0.op_class::SimdShaSigma3                 0      0.00%     80.56% # Class of executed instruction
system.cpu0.op_class::SimdPredAlu                   0      0.00%     80.56% # Class of executed instruction
system.cpu0.op_class::MemRead                10588040     11.34%     91.89% # Class of executed instruction
system.cpu0.op_class::MemWrite                7083522      7.58%     99.48% # Class of executed instruction
system.cpu0.op_class::FloatMemRead             299074      0.32%     99.80% # Class of executed instruction
system.cpu0.op_class::FloatMemWrite            189249      0.20%    100.00% # Class of executed instruction
system.cpu0.op_class::IprAccess                     0      0.00%    100.00% # Class of executed instruction
system.cpu0.op_class::InstPrefetch                  0      0.00%    100.00% # Class of executed instruction
system.cpu0.op_class::total                  93396407                       # Class of executed instruction
system.cpu0.pwrStateResidencyTicks::ON   186042832000                       # Cumulative time (in ticks) in various power states
system.cpu0.workload.numSyscalls                   56                       # Number of system calls
system.cpu1.Branches                         11271693                       # Number of branches fetched
system.cpu1.committedInsts                   50000000                       # Number of instructions committed
system.cpu1.committedOps                     93416416                       # Number of ops (including micro ops) committed
system.cpu1.dcache.ReadReq_accesses::.cpu1.data     10895037                       # number of ReadReq accesses(hits+misses)
system.cpu1.dcache.ReadReq_accesses::total     10895037                       # number of ReadReq accesses(hits+misses)
system.cpu1.dcache.ReadReq_avg_miss_latency::.cpu1.data 114212.161890                       # average ReadReq miss latency
system.cpu1.dcache.ReadReq_avg_miss_latency::total 114212.161890                       # average ReadReq miss latency
system.cpu1.dcache.ReadReq_avg_mshr_miss_latency::.cpu1.data 112212.161890                       # average ReadReq mshr miss latency
system.cpu1.dcache.ReadReq_avg_mshr_miss_latency::total 112212.161890                       # average ReadReq mshr miss latency
system.cpu1.dcache.ReadReq_hits::.cpu1.data     10880138                       # number of ReadReq hits
system.cpu1.dcache.ReadReq_hits::total       10880138                       # number of ReadReq hits
system.cpu1.dcache.ReadReq_miss_latency::.cpu1.data   1701647000                       # number of ReadReq miss cycles
system.cpu1.dcache.ReadReq_miss_latency::total   1701647000                       # number of ReadReq miss cycles
system.cpu1.dcache.ReadReq_miss_rate::.cpu1.data     0.001368                       # miss rate for ReadReq accesses
system.cpu1.dcache.ReadReq_miss_rate::total     0.001368                       # miss rate for ReadReq accesses
system.cpu1.dcache.ReadReq_misses::.cpu1.data        14899                       # number of ReadReq misses
system.cpu1.dcache.ReadReq_misses::total        14899                       # number of ReadReq misses
system.cpu1.dcache.ReadReq_mshr_miss_latency::.cpu1.data   1671849000                       # number of ReadReq MSHR miss cycles
system.cpu1.dcache.ReadReq_mshr_miss_latency::total   1671849000                       # number of ReadReq MSHR miss cycles
system.cpu1.dcache.ReadReq_mshr_miss_rate::.cpu1.data     0.001368                       # mshr miss rate for ReadReq accesses
system.cpu1.dcache.ReadReq_mshr_miss_rate::total     0.001368                       # mshr miss rate for ReadReq accesses
system.cpu1.dcache.ReadReq_mshr_misses::.cpu1.data        14899                       # number of ReadReq MSHR misses
system.cpu1.dcache.ReadReq_mshr_misses::total        14899                       # number of ReadReq MSHR misses
system.cpu1.dcache.WriteReq_accesses::.cpu1.data      7274294                       # number of WriteReq accesses(hits+misses)
system.cpu1.dcache.WriteReq_accesses::total      7274294                       # number of WriteReq accesses(hits+misses)
system.cpu1.dcache.WriteReq_avg_miss_latency::.cpu1.data 138667.885377                       # average WriteReq miss latency
system.cpu1.dcache.WriteReq_avg_miss_latency::total 138667.885377                       # average WriteReq miss latency
system.cpu1.dcache.WriteReq_avg_mshr_miss_latency::.cpu1.data 136667.885377                       # average WriteReq mshr miss latency
system.cpu1.dcache.WriteReq_avg_mshr_miss_latency::total 136667.885377                       # average WriteReq mshr miss latency
system.cpu1.dcache.WriteReq_hits::.cpu1.data      7222053                       # number of WriteReq hits
system.cpu1.dcache.WriteReq_hits::total       7222053                       # number of WriteReq hits
system.cpu1.dcache.WriteReq_miss_latency::.cpu1.data   7244149000                       # number of WriteReq miss cycles
system.cpu1.dcache.WriteReq_miss_latency::total   7244149000                       # number of WriteReq miss cycles
system.cpu1.dcache.WriteReq_miss_rate::.cpu1.data     0.007182                       # miss rate for WriteReq accesses
system.cpu1.dcache.WriteReq_miss_rate::total     0.007182                       # miss rate for WriteReq accesses
system.cpu1.dcache.WriteReq_misses::.cpu1.data        52241                       # number of WriteReq misses
system.cpu1.dcache.WriteReq_misses::total        52241                       # number of WriteReq misses
system.cpu1.dcache.WriteReq_mshr_miss_latency::.cpu1.data   7139667000                       # number of WriteReq MSHR miss cycles
system.cpu1.dcache.WriteReq_mshr_miss_latency::total   7139667000                       # number of WriteReq MSHR miss cycles
system.cpu1.dcache.WriteReq_mshr_miss_rate::.cpu1.data     0.007182                       # mshr miss rate for WriteReq accesses
system.cpu1.dcache.WriteReq_mshr_miss_rate::total     0.007182                       # mshr miss rate for WriteReq accesses
system.cpu1.dcache.WriteReq_mshr_misses::.cpu1.data        52241                       # number of WriteReq MSHR misses
system.cpu1.dcache.WriteReq_mshr_misses::total        52241                       # number of WriteReq MSHR misses
system.cpu1.dcache.avg_blocked_cycles::no_mshrs          nan                       # average number of cycles each access was blocked
system.cpu1.dcache.avg_blocked_cycles::no_targets          nan                       # average number of cycles each access was blocked
system.cpu1.dcache.blocked::no_mshrs                0                       # number of cycles access was blocked
system.cpu1.dcache.blocked::no_targets              0                       # number of cycles access was blocked
system.cpu1.dcache.blocked_cycles::no_mshrs            0                       # number of cycles access was blocked
system.cpu1.dcache.blocked_cycles::no_targets            0                       # number of cycles access was blocked
system.cpu1.dcache.demand_accesses::.cpu1.data     18169331                       # number of demand (read+write) accesses
system.cpu1.dcache.demand_accesses::total     18169331                       # number of demand (read+write) accesses
system.cpu1.dcache.demand_avg_miss_latency::.cpu1.data 133240.929401                       # average overall miss latency
system.cpu1.dcache.demand_avg_miss_latency::total 133240.929401                       # average overall miss latency
system.cpu1.dcache.demand_avg_mshr_miss_latency::.cpu1.data 131240.929401                       # average overall mshr miss latency
system.cpu1.dcache.demand_avg_mshr_miss_latency::total 131240.929401                       # average overall mshr miss latency
system.cpu1.dcache.demand_hits::.cpu1.data     18102191                       # number of demand (read+write) hits
system.cpu1.dcache.demand_hits::total        18102191                       # number of demand (read+write) hits
system.cpu1.dcache.demand_miss_latency::.cpu1.data   8945796000                       # number of demand (read+write) miss cycles
system.cpu1.dcache.demand_miss_latency::total   8945796000                       # number of demand (read+write) miss cycles
system.cpu1.dcache.demand_miss_rate::.cpu1.data     0.003695                       # miss rate for demand accesses
system.cpu1.dcache.demand_miss_rate::total     0.003695                       # miss rate for demand accesses
system.cpu1.dcache.demand_misses::.cpu1.data        67140                       # number of demand (read+write) misses
system.cpu1.dcache.demand_misses::total         67140                       # number of demand (read+write) misses
system.cpu1.dcache.demand_mshr_miss_latency::.cpu1.data   8811516000                       # number of demand (read+write) MSHR miss cycles
system.cpu1.dcache.demand_mshr_miss_latency::total   8811516000                       # number of demand (read+write) MSHR miss cycles
system.cpu1.dcache.demand_mshr_miss_rate::.cpu1.data     0.003695                       # mshr miss rate for demand accesses
system.cpu1.dcache.demand_mshr_miss_rate::total     0.003695                       # mshr miss rate for demand accesses
system.cpu1.dcache.demand_mshr_misses::.cpu1.data        67140                       # number of demand (read+write) MSHR misses
system.cpu1.dcache.demand_mshr_misses::total        67140                       # number of demand (read+write) MSHR misses
system.cpu1.dcache.overall_accesses::.cpu1.data     18169331                       # number of overall (read+write) accesses
system.cpu1.dcache.overall_accesses::total     18169331                       # number of overall (read+write) accesses
system.cpu1.dcache.overall_avg_miss_latency::.cpu1.data 133240.929401                       # average overall miss latency
system.cpu1.dcache.overall_avg_miss_latency::total 133240.929401                       # average overall miss latency
system.cpu1.dcache.overall_avg_mshr_miss_latency::.cpu1.data 131240.929401                       # average overall mshr miss latency
system.cpu1.dcache.overall_avg_mshr_miss_latency::total 131240.929401                       # average overall mshr miss latency
system.cpu1.dcache.overall_hits::.cpu1.data     18102191                       # number of overall hits
system.cpu1.dcache.overall_hits::total       18102191                       # number of overall hits
system.cpu1.dcache.overall_miss_latency::.cpu1.data   8945796000                       # number of overall miss cycles
system.cpu1.dcache.overall_miss_latency::total   8945796000                       # number of overall miss cycles
system.cpu1.dcache.overall_miss_rate::.cpu1.data     0.003695                       # miss rate for overall accesses
system.cpu1.dcache.overall_miss_rate::total     0.003695                       # miss rate for overall accesses
system.cpu1.dcache.overall_misses::.cpu1.data        67140                       # number of overall misses
system.cpu1.dcache.overall_misses::total        67140                       # number of overall misses
system.cpu1.dcache.overall_mshr_miss_latency::.cpu1.data   8811516000                       # number of overall MSHR miss cycles
system.cpu1.dcache.overall_mshr_miss_latency::total   8811516000                       # number of overall MSHR miss cycles
system.cpu1.dcache.overall_mshr_miss_rate::.cpu1.data     0.003695                       # mshr miss rate for overall accesses
system.cpu1.dcache.overall_mshr_miss_rate::total     0.003695                       # mshr miss rate for overall accesses
system.cpu1.dcache.overall_mshr_misses::.cpu1.data        67140                       # number of overall MSHR misses
system.cpu1.dcache.overall_mshr_misses::total        67140                       # number of overall MSHR misses
system.cpu1.dcache.pwrStateResidencyTicks::UNDEFINED 186042832000                       # Cumulative time (in ticks) in various power states
system.cpu1.dcache.replacements                 66116                       # number of replacements
system.cpu1.dcache.tags.age_task_id_blocks_1024::0            1                       # Occupied blocks per task id
system.cpu1.dcache.tags.age_task_id_blocks_1024::1           17                       # Occupied blocks per task id
system.cpu1.dcache.tags.age_task_id_blocks_1024::2          174                       # Occupied blocks per task id
system.cpu1.dcache.tags.age_task_id_blocks_1024::3          761                       # Occupied blocks per task id
system.cpu1.dcache.tags.age_task_id_blocks_1024::4           71                       # Occupied blocks per task id
system.cpu1.dcache.tags.avg_refs           270.618573                       # Average number of references to valid blocks.
system.cpu1.dcache.tags.data_accesses        36405802                       # Number of data accesses
system.cpu1.dcache.tags.occ_blocks::.cpu1.data  1019.976760                       # Average occupied blocks per requestor
system.cpu1.dcache.tags.occ_percent::.cpu1.data     0.996071                       # Average percentage of cache occupancy
system.cpu1.dcache.tags.occ_percent::total     0.996071                       # Average percentage of cache occupancy
system.cpu1.dcache.tags.occ_task_id_blocks::1024         1024                       # Occupied blocks per task id
system.cpu1.dcache.tags.occ_task_id_percent::1024            1                       # Percentage of cache occupancy per task id
system.cpu1.dcache.tags.pwrStateResidencyTicks::UNDEFINED 186042832000                       # Cumulative time (in ticks) in various power states
system.cpu1.dcache.tags.sampled_refs            67140                       # Sample count of references to valid blocks.
system.cpu1.dcache.tags.tag_accesses         36405802                       # Number of tag accesses
system.cpu1.dcache.tags.tagsinuse         1019.976760                       # Cycle average of tags in use
system.cpu1.dcache.tags.total_refs           18169331                       # Total number of references to valid blocks.
system.cpu1.dcache.tags.warmup_cycle           283000                       # Cycle when the warmup percentage was hit.
system.cpu1.dcache.writebacks::.writebacks        62889                       # number of writebacks
system.cpu1.dcache.writebacks::total            62889                       # number of writebacks
system.cpu1.dtb.rdAccesses                   10895037                       # TLB accesses on read requests
system.cpu1.dtb.rdMisses                         9261                       # TLB misses on read requests
system.cpu1.dtb.walker.pwrStateResidencyTicks::UNDEFINED 186042832000                       # Cumulative time (in ticks) in various power states
system.cpu1.dtb.wrAccesses                    7274294                       # TLB accesses on write requests
system.cpu1.dtb.wrMisses                          904                       # TLB misses on write requests
system.cpu1.icache.ReadReq_accesses::.cpu1.inst     67564204                       # number of ReadReq accesses(hits+misses)
system.cpu1.icache.ReadReq_accesses::total     67564204                       # number of ReadReq accesses(hits+misses)
system.cpu1.icache.ReadReq_avg_miss_latency::.cpu1.inst 27564.145961                       # average ReadReq miss latency
system.cpu1.icache.ReadReq_avg_miss_latency::total 27564.145961                       # average ReadReq miss latency
system.cpu1.icache.ReadReq_avg_mshr_miss_latency::.cpu1.inst 25564.145961                       # average ReadReq mshr miss latency
system.cpu1.icache.ReadReq_avg_mshr_miss_latency::total 25564.145961                       # average ReadReq mshr miss latency
system.cpu1.icache.ReadReq_hits::.cpu1.inst     67338500                       # number of ReadReq hits
system.cpu1.icache.ReadReq_hits::total       67338500                       # number of ReadReq hits
system.cpu1.icache.ReadReq_miss_latency::.cpu1.inst   6221338000                       # number of ReadReq miss cycles
system.cpu1.icache.ReadReq_miss_latency::total   6221338000                       # number of ReadReq miss cycles
system.cpu1.icache.ReadReq_miss_rate::.cpu1.inst     0.003341                       # miss rate for ReadReq accesses
system.cpu1.icache.ReadReq_miss_rate::total     0.003341                       # miss rate for ReadReq accesses
system.cpu1.icache.ReadReq_misses::.cpu1.inst       225704                       # number of ReadReq misses
system.cpu1.icache.ReadReq_misses::total       225704                       # number of ReadReq misses
system.cpu1.icache.ReadReq_mshr_miss_latency::.cpu1.inst   5769930000                       # number of ReadReq MSHR miss cycles
system.cpu1.icache.ReadReq_mshr_miss_latency::total   5769930000                       # number of ReadReq MSHR miss cycles
system.cpu1.icache.ReadReq_mshr_miss_rate::.cpu1.inst     0.003341                       # mshr miss rate for ReadReq accesses
system.cpu1.icache.ReadReq_mshr_miss_rate::total     0.003341                       # mshr miss rate for ReadReq accesses
system.cpu1.icache.ReadReq_mshr_misses::.cpu1.inst       225704                       # number of ReadReq MSHR misses
system.cpu1.icache.ReadReq_mshr_misses::total       225704                       # number of ReadReq MSHR misses
system.cpu1.icache.avg_blocked_cycles::no_mshrs          nan                       # average number of cycles each access was blocked
system.cpu1.icache.avg_blocked_cycles::no_targets          nan                       # average number of cycles each access was blocked
system.cpu1.icache.blocked::no_mshrs                0                       # number of cycles access was blocked
system.cpu1.icache.blocked::no_targets              0                       # number of cycles access was blocked
system.cpu1.icache.blocked_cycles::no_mshrs            0                       # number of cycles access was blocked
system.cpu1.icache.blocked_cycles::no_targets            0                       # number of cycles access was blocked
system.cpu1.icache.demand_accesses::.cpu1.inst     67564204                       # number of demand (read+write) accesses
system.cpu1.icache.demand_accesses::total     67564204                       # number of demand (read+write) accesses
system.cpu1.icache.demand_avg_miss_latency::.cpu1.inst 27564.145961                       # average overall miss latency
system.cpu1.icache.demand_avg_miss_latency::total 27564.145961                       # average overall miss latency
system.cpu1.icache.demand_avg_mshr_miss_latency::.cpu1.inst 25564.145961                       # average overall mshr miss latency
system.cpu1.icache.demand_avg_mshr_miss_latency::total 25564.145961                       # average overall mshr miss latency
system.cpu1.icache.demand_hits::.cpu1.inst     67338500                       # number of demand (read+write) hits
system.cpu1.icache.demand_hits::total        67338500                       # number of demand (read+write) hits
system.cpu1.icache.demand_miss_latency::.cpu1.inst   6221338000                       # number of demand (read+write) miss cycles
system.cpu1.icache.demand_miss_latency::total   6221338000                       # number of demand (read+write) miss cycles
system.cpu1.icache.demand_miss_rate::.cpu1.inst     0.003341                       # miss rate for demand accesses
system.cpu1.icache.demand_miss_rate::total     0.003341                       # miss rate for demand accesses
system.cpu1.icache.demand_misses::.cpu1.inst       225704                       # number of demand (read+write) misses
system.cpu1.icache.demand_misses::total        225704                       # number of demand (read+write) misses
system.cpu1.icache.demand_mshr_miss_latency::.cpu1.inst   5769930000                       # number of demand (read+write) MSHR miss cycles
system.cpu1.icache.demand_mshr_miss_latency::total   5769930000                       # number of demand (read+write) MSHR miss cycles
system.cpu1.icache.demand_mshr_miss_rate::.cpu1.inst     0.003341                       # mshr miss rate for demand accesses
system.cpu1.icache.demand_mshr_miss_rate::total     0.003341                       # mshr miss rate for demand accesses
system.cpu1.icache.demand_mshr_misses::.cpu1.inst       225704                       # number of demand (read+write) MSHR misses
system.cpu1.icache.demand_mshr_misses::total       225704                       # number of demand (read+write) MSHR misses
system.cpu1.icache.overall_accesses::.cpu1.inst     67564204                       # number of overall (read+write) accesses
system.cpu1.icache.overall_accesses::total     67564204                       # number of overall (read+write) accesses
system.cpu1.icache.overall_avg_miss_latency::.cpu1.inst 27564.145961                       # average overall miss latency
system.cpu1.icache.overall_avg_miss_latency::total 27564.145961                       # average overall miss latency
system.cpu1.icache.overall_avg_mshr_miss_latency::.cpu1.inst 25564.145961                       # average overall mshr miss latency
system.cpu1.icache.overall_avg_mshr_miss_latency::total 25564.145961                       # average overall mshr miss latency
system.cpu1.icache.overall_hits::.cpu1.inst     67338500                       # number of overall hits
system.cpu1.icache.overall_hits::total       67338500                       # number of overall hits
system.cpu1.icache.overall_miss_latency::.cpu1.inst   6221338000                       # number of overall miss cycles
system.cpu1.icache.overall_miss_latency::total   6221338000                       # number of overall miss cycles
system.cpu1.icache.overall_miss_rate::.cpu1.inst     0.003341                       # miss rate for overall accesses
system.cpu1.icache.overall_miss_rate::total     0.003341                       # miss rate for overall accesses
system.cpu1.icache.overall_misses::.cpu1.inst       225704                       # number of overall misses
system.cpu1.icache.overall_misses::total       225704                       # number of overall misses
system.cpu1.icache.overall_mshr_miss_latency::.cpu1.inst   5769930000                       # number of overall MSHR miss cycles
system.cpu1.icache.overall_mshr_miss_latency::total   5769930000                       # number of overall MSHR miss cycles
system.cpu1.icache.overall_mshr_miss_rate::.cpu1.inst     0.003341                       # mshr miss rate for overall accesses
system.cpu1.icache.overall_mshr_miss_rate::total     0.003341                       # mshr miss rate for overall accesses
system.cpu1.icache.overall_mshr_misses::.cpu1.inst       225704                       # number of overall MSHR misses
system.cpu1.icache.overall_mshr_misses::total       225704                       # number of overall MSHR misses
system.cpu1.icache.pwrStateResidencyTicks::UNDEFINED 186042832000                       # Cumulative time (in ticks) in various power states
system.cpu1.icache.replacements                225451                       # number of replacements
system.cpu1.icache.tags.age_task_id_blocks_1024::0            6                       # Occupied blocks per task id
system.cpu1.icache.tags.age_task_id_blocks_1024::3           10                       # Occupied blocks per task id
system.cpu1.icache.tags.age_task_id_blocks_1024::4          237                       # Occupied blocks per task id
system.cpu1.icache.tags.avg_refs           299.348722                       # Average number of references to valid blocks.
system.cpu1.icache.tags.data_accesses       135354112                       # Number of data accesses
system.cpu1.icache.tags.occ_blocks::.cpu1.inst   252.702907                       # Average occupied blocks per requestor
system.cpu1.icache.tags.occ_percent::.cpu1.inst     0.987121                       # Average percentage of cache occupancy
system.cpu1.icache.tags.occ_percent::total     0.987121                       # Average percentage of cache occupancy
system.cpu1.icache.tags.occ_task_id_blocks::1024          253                       # Occupied blocks per task id
system.cpu1.icache.tags.occ_task_id_percent::1024     0.988281                       # Percentage of cache occupancy per task id
system.cpu1.icache.tags.pwrStateResidencyTicks::UNDEFINED 186042832000                       # Cumulative time (in ticks) in various power states
system.cpu1.icache.tags.sampled_refs           225704                       # Sample count of references to valid blocks.
system.cpu1.icache.tags.tag_accesses        135354112                       # Number of tag accesses
system.cpu1.icache.tags.tagsinuse          252.702907                       # Cycle average of tags in use
system.cpu1.icache.tags.total_refs           67564204                       # Total number of references to valid blocks.
system.cpu1.icache.tags.warmup_cycle           156000                       # Cycle when the warmup percentage was hit.
system.cpu1.idle_fraction                           0                       # Percentage of idle cycles
system.cpu1.interrupts.clk_domain.clock         16000                       # Clock period in ticks
system.cpu1.interrupts.pwrStateResidencyTicks::UNDEFINED 186042832000                       # Cumulative time (in ticks) in various power states
system.cpu1.itb.rdAccesses                          0                       # TLB accesses on read requests
system.cpu1.itb.rdMisses                            0                       # TLB misses on read requests
system.cpu1.itb.walker.pwrStateResidencyTicks::UNDEFINED 186042832000                       # Cumulative time (in ticks) in various power states
system.cpu1.itb.wrAccesses                   67564204                       # TLB accesses on write requests
system.cpu1.itb.wrMisses                          145                       # TLB misses on write requests
system.cpu1.not_idle_fraction                       1                       # Percentage of non-idle cycles
system.cpu1.numCycles                       186042832                       # number of cpu cycles simulated
system.cpu1.numWorkItemsCompleted                   0                       # number of work items this cpu completed
system.cpu1.numWorkItemsStarted                     0                       # number of work items this cpu started
system.cpu1.num_busy_cycles                 186042832                       # Number of busy cycles
system.cpu1.num_cc_register_reads            57999789                       # number of times the CC registers were read
system.cpu1.num_cc_register_writes           29711192                       # number of times the CC registers were written
system.cpu1.num_conditional_control_insts      9157455                       # number of instructions that are conditional controls
system.cpu1.num_fp_alu_accesses               1222432                       # Number of float alu accesses
system.cpu1.num_fp_insts                      1222432                       # number of float instructions
system.cpu1.num_fp_register_reads             1373816                       # number of times the floating registers were read
system.cpu1.num_fp_register_writes             922801                       # number of times the floating registers were written
system.cpu1.num_func_calls                     950822                       # number of times a function call or return occured
system.cpu1.num_idle_cycles                         0                       # Number of idle cycles
system.cpu1.num_int_alu_accesses             92671260                       # Number of integer alu accesses
system.cpu1.num_int_insts                    92671260                       # number of integer instructions
system.cpu1.num_int_register_reads          179379720                       # number of times the integer registers were read
system.cpu1.num_int_register_writes          74049566                       # number of times the integer registers were written
system.cpu1.num_load_insts                   10889359                       # Number of load instructions
system.cpu1.num_mem_refs                     18163650                       # number of memory refs
system.cpu1.num_store_insts                   7274291                       # Number of store instructions
system.cpu1.num_vec_alu_accesses                    0                       # Number of vector alu accesses
system.cpu1.num_vec_insts                           0                       # number of vector instructions
system.cpu1.num_vec_register_reads                  0                       # number of times the vector registers were read
system.cpu1.num_vec_register_writes                 0                       # number of times the vector registers were written
system.cpu1.op_class::No_OpClass               166650      0.18%      0.18% # Class of executed instruction
system.cpu1.op_class::IntAlu                 74178542     79.41%     79.58% # Class of executed instruction
system.cpu1.op_class::IntMult                  223387      0.24%     79.82% # Class of executed instruction
system.cpu1.op_class::IntDiv                       21      0.00%     79.82% # Class of executed instruction
system.cpu1.op_class::FloatAdd                 117293      0.13%     79.95% # Class of executed instruction
system.cpu1.op_class::FloatCmp                      0      0.00%     79.95% # Class of executed instruction
system.cpu1.op_class::FloatCvt                      0      0.00%     79.95% # Class of executed instruction
system.cpu1.op_class::FloatMult                     0      0.00%     79.95% # Class of executed instruction
system.cpu1.op_class::FloatMultAcc                  0      0.00%     79.95% # Class of executed instruction
system.cpu1.op_class::FloatDiv                      0      0.00%     79.95% # Class of executed instruction
system.cpu1.op_class::FloatMisc                     0      0.00%     79.95% # Class of executed instruction
system.cpu1.op_class::FloatSqrt                     0      0.00%     79.95% # Class of executed instruction
system.cpu1.op_class::SimdAdd                     374      0.00%     79.95% # Class of executed instruction
system.cpu1.op_class::SimdAddAcc                    0      0.00%     79.95% # Class of executed instruction
system.cpu1.op_class::SimdAlu                     100      0.00%     79.95% # Class of executed instruction
system.cpu1.op_class::SimdCmp                       0      0.00%     79.95% # Class of executed instruction
system.cpu1.op_class::SimdCvt                  110402      0.12%     80.07% # Class of executed instruction
system.cpu1.op_class::SimdMisc                 455811      0.49%     80.56% # Class of executed instruction
system.cpu1.op_class::SimdMult                      0      0.00%     80.56% # Class of executed instruction
system.cpu1.op_class::SimdMultAcc                   0      0.00%     80.56% # Class of executed instruction
system.cpu1.op_class::SimdShift                   186      0.00%     80.56% # Class of executed instruction
system.cpu1.op_class::SimdShiftAcc                  0      0.00%     80.56% # Class of executed instruction
system.cpu1.op_class::SimdDiv                       0      0.00%     80.56% # Class of executed instruction
system.cpu1.op_class::SimdSqrt                      0      0.00%     80.56% # Class of executed instruction
system.cpu1.op_class::SimdFloatAdd                  0      0.00%     80.56% # Class of executed instruction
system.cpu1.op_class::SimdFloatAlu                  0      0.00%     80.56% # Class of executed instruction
system.cpu1.op_class::SimdFloatCmp                  0      0.00%     80.56% # Class of executed instruction
system.cpu1.op_class::SimdFloatCvt                  0      0.00%     80.56% # Class of executed instruction
system.cpu1.op_class::SimdFloatDiv                  0      0.00%     80.56% # Class of executed instruction
system.cpu1.op_class::SimdFloatMisc                 0      0.00%     80.56% # Class of executed instruction
system.cpu1.op_class::SimdFloatMult                 0      0.00%     80.56% # Class of executed instruction
system.cpu1.op_class::SimdFloatMultAcc              0      0.00%     80.56% # Class of executed instruction
system.cpu1.op_class::SimdFloatSqrt                 0      0.00%     80.56% # Class of executed instruction
system.cpu1.op_class::SimdReduceAdd                 0      0.00%     80.56% # Class of executed instruction
system.cpu1.op_class::SimdReduceAlu                 0      0.00%     80.56% # Class of executed instruction
system.cpu1.op_class::SimdReduceCmp                 0      0.00%     80.56% # Class of executed instruction
system.cpu1.op_class::SimdFloatReduceAdd            0      0.00%     80.56% # Class of executed instruction
system.cpu1.op_class::SimdFloatReduceCmp            0      0.00%     80.56% # Class of executed instruction
system.cpu1.op_class::SimdAes                       0      0.00%     80.56% # Class of executed instruction
system.cpu1.op_class::SimdAesMix                    0      0.00%     80.56% # Class of executed instruction
system.cpu1.op_class::SimdSha1Hash                  0      0.00%     80.56% # Class of executed instruction
system.cpu1.op_class::SimdSha1Hash2                 0      0.00%     80.56% # Class of executed instruction
system.cpu1.op_class::SimdSha256Hash                0      0.00%     80.56% # Class of executed instruction
system.cpu1.op_class::SimdSha256Hash2               0      0.00%     80.56% # Class of executed instruction
system.cpu1.op_class::SimdShaSigma2                 0      0.00%     80.56% # Class of executed instruction
system.cpu1.op_class::SimdShaSigma3                 0      0.00%     80.56% # Class of executed instruction
system.cpu1.op_class::SimdPredAlu                   0      0.00%     80.56% # Class of executed instruction
system.cpu1.op_class::MemRead                10590223     11.34%     91.89% # Class of executed instruction
system.cpu1.op_class::MemWrite                7085002      7.58%     99.48% # Class of executed instruction
system.cpu1.op_class::FloatMemRead             299136      0.32%     99.80% # Class of executed instruction
system.cpu1.op_class::FloatMemWrite            189289      0.20%    100.00% # Class of executed instruction
system.cpu1.op_class::IprAccess                     0      0.00%    100.00% # Class of executed instruction
system.cpu1.op_class::InstPrefetch                  0      0.00%    100.00% # Class of executed instruction
system.cpu1.op_class::total                  93416416                       # Class of executed instruction
system.cpu1.pwrStateResidencyTicks::ON   186042832000                       # Cumulative time (in ticks) in various power states
system.cpu1.workload.numSyscalls                   56                       # Number of system calls
system.cpu2.Branches                          2155766                       # Number of branches fetched
system.cpu2.committedInsts                   28263551                       # Number of instructions committed
system.cpu2.committedOps                     40235365                       # Number of ops (including micro ops) committed
system.cpu2.dcache.ReadReq_accesses::.cpu2.data      6051399                       # number of ReadReq accesses(hits+misses)
system.cpu2.dcache.ReadReq_accesses::total      6051399                       # number of ReadReq accesses(hits+misses)
system.cpu2.dcache.ReadReq_avg_miss_latency::.cpu2.data 128074.373951                       # average ReadReq miss latency
system.cpu2.dcache.ReadReq_avg_miss_latency::total 128074.373951                       # average ReadReq miss latency
system.cpu2.dcache.ReadReq_avg_mshr_miss_latency::.cpu2.data 126074.376576                       # average ReadReq mshr miss latency
system.cpu2.dcache.ReadReq_avg_mshr_miss_latency::total 126074.376576                       # average ReadReq mshr miss latency
system.cpu2.dcache.ReadReq_hits::.cpu2.data      5289358                       # number of ReadReq hits
system.cpu2.dcache.ReadReq_hits::total        5289358                       # number of ReadReq hits
system.cpu2.dcache.ReadReq_miss_latency::.cpu2.data  97597924000                       # number of ReadReq miss cycles
system.cpu2.dcache.ReadReq_miss_latency::total  97597924000                       # number of ReadReq miss cycles
system.cpu2.dcache.ReadReq_miss_rate::.cpu2.data     0.125928                       # miss rate for ReadReq accesses
system.cpu2.dcache.ReadReq_miss_rate::total     0.125928                       # miss rate for ReadReq accesses
system.cpu2.dcache.ReadReq_misses::.cpu2.data       762041                       # number of ReadReq misses
system.cpu2.dcache.ReadReq_misses::total       762041                       # number of ReadReq misses
system.cpu2.dcache.ReadReq_mshr_miss_latency::.cpu2.data  96073844000                       # number of ReadReq MSHR miss cycles
system.cpu2.dcache.ReadReq_mshr_miss_latency::total  96073844000                       # number of ReadReq MSHR miss cycles
system.cpu2.dcache.ReadReq_mshr_miss_rate::.cpu2.data     0.125928                       # mshr miss rate for ReadReq accesses
system.cpu2.dcache.ReadReq_mshr_miss_rate::total     0.125928                       # mshr miss rate for ReadReq accesses
system.cpu2.dcache.ReadReq_mshr_misses::.cpu2.data       762041                       # number of ReadReq MSHR misses
system.cpu2.dcache.ReadReq_mshr_misses::total       762041                       # number of ReadReq MSHR misses
system.cpu2.dcache.WriteReq_accesses::.cpu2.data      1879734                       # number of WriteReq accesses(hits+misses)
system.cpu2.dcache.WriteReq_accesses::total      1879734                       # number of WriteReq accesses(hits+misses)
system.cpu2.dcache.WriteReq_avg_miss_latency::.cpu2.data 96551.915090                       # average WriteReq miss latency
system.cpu2.dcache.WriteReq_avg_miss_latency::total 96551.915090                       # average WriteReq miss latency
system.cpu2.dcache.WriteReq_avg_mshr_miss_latency::.cpu2.data 94551.915090                       # average WriteReq mshr miss latency
system.cpu2.dcache.WriteReq_avg_mshr_miss_latency::total 94551.915090                       # average WriteReq mshr miss latency
system.cpu2.dcache.WriteReq_hits::.cpu2.data      1877567                       # number of WriteReq hits
system.cpu2.dcache.WriteReq_hits::total       1877567                       # number of WriteReq hits
system.cpu2.dcache.WriteReq_miss_latency::.cpu2.data    209228000                       # number of WriteReq miss cycles
system.cpu2.dcache.WriteReq_miss_latency::total    209228000                       # number of WriteReq miss cycles
system.cpu2.dcache.WriteReq_miss_rate::.cpu2.data     0.001153                       # miss rate for WriteReq accesses
system.cpu2.dcache.WriteReq_miss_rate::total     0.001153                       # miss rate for WriteReq accesses
system.cpu2.dcache.WriteReq_misses::.cpu2.data         2167                       # number of WriteReq misses
system.cpu2.dcache.WriteReq_misses::total         2167                       # number of WriteReq misses
system.cpu2.dcache.WriteReq_mshr_miss_latency::.cpu2.data    204894000                       # number of WriteReq MSHR miss cycles
system.cpu2.dcache.WriteReq_mshr_miss_latency::total    204894000                       # number of WriteReq MSHR miss cycles
system.cpu2.dcache.WriteReq_mshr_miss_rate::.cpu2.data     0.001153                       # mshr miss rate for WriteReq accesses
system.cpu2.dcache.WriteReq_mshr_miss_rate::total     0.001153                       # mshr miss rate for WriteReq accesses
system.cpu2.dcache.WriteReq_mshr_misses::.cpu2.data         2167                       # number of WriteReq MSHR misses
system.cpu2.dcache.WriteReq_mshr_misses::total         2167                       # number of WriteReq MSHR misses
system.cpu2.dcache.avg_blocked_cycles::no_mshrs          nan                       # average number of cycles each access was blocked
system.cpu2.dcache.avg_blocked_cycles::no_targets          nan                       # average number of cycles each access was blocked
system.cpu2.dcache.blocked::no_mshrs                0                       # number of cycles access was blocked
system.cpu2.dcache.blocked::no_targets              0                       # number of cycles access was blocked
system.cpu2.dcache.blocked_cycles::no_mshrs            0                       # number of cycles access was blocked
system.cpu2.dcache.blocked_cycles::no_targets            0                       # number of cycles access was blocked
system.cpu2.dcache.demand_accesses::.cpu2.data      7931133                       # number of demand (read+write) accesses
system.cpu2.dcache.demand_accesses::total      7931133                       # number of demand (read+write) accesses
system.cpu2.dcache.demand_avg_miss_latency::.cpu2.data 127984.988380                       # average overall miss latency
system.cpu2.dcache.demand_avg_miss_latency::total 127984.988380                       # average overall miss latency
system.cpu2.dcache.demand_avg_mshr_miss_latency::.cpu2.data 125984.990997                       # average overall mshr miss latency
system.cpu2.dcache.demand_avg_mshr_miss_latency::total 125984.990997                       # average overall mshr miss latency
system.cpu2.dcache.demand_hits::.cpu2.data      7166925                       # number of demand (read+write) hits
system.cpu2.dcache.demand_hits::total         7166925                       # number of demand (read+write) hits
system.cpu2.dcache.demand_miss_latency::.cpu2.data  97807152000                       # number of demand (read+write) miss cycles
system.cpu2.dcache.demand_miss_latency::total  97807152000                       # number of demand (read+write) miss cycles
system.cpu2.dcache.demand_miss_rate::.cpu2.data     0.096355                       # miss rate for demand accesses
system.cpu2.dcache.demand_miss_rate::total     0.096355                       # miss rate for demand accesses
system.cpu2.dcache.demand_misses::.cpu2.data       764208                       # number of demand (read+write) misses
system.cpu2.dcache.demand_misses::total        764208                       # number of demand (read+write) misses
system.cpu2.dcache.demand_mshr_miss_latency::.cpu2.data  96278738000                       # number of demand (read+write) MSHR miss cycles
system.cpu2.dcache.demand_mshr_miss_latency::total  96278738000                       # number of demand (read+write) MSHR miss cycles
system.cpu2.dcache.demand_mshr_miss_rate::.cpu2.data     0.096355                       # mshr miss rate for demand accesses
system.cpu2.dcache.demand_mshr_miss_rate::total     0.096355                       # mshr miss rate for demand accesses
system.cpu2.dcache.demand_mshr_misses::.cpu2.data       764208                       # number of demand (read+write) MSHR misses
system.cpu2.dcache.demand_mshr_misses::total       764208                       # number of demand (read+write) MSHR misses
system.cpu2.dcache.overall_accesses::.cpu2.data      7931133                       # number of overall (read+write) accesses
system.cpu2.dcache.overall_accesses::total      7931133                       # number of overall (read+write) accesses
system.cpu2.dcache.overall_avg_miss_latency::.cpu2.data 127984.988380                       # average overall miss latency
system.cpu2.dcache.overall_avg_miss_latency::total 127984.988380                       # average overall miss latency
system.cpu2.dcache.overall_avg_mshr_miss_latency::.cpu2.data 125984.990997                       # average overall mshr miss latency
system.cpu2.dcache.overall_avg_mshr_miss_latency::total 125984.990997                       # average overall mshr miss latency
system.cpu2.dcache.overall_hits::.cpu2.data      7166925                       # number of overall hits
system.cpu2.dcache.overall_hits::total        7166925                       # number of overall hits
system.cpu2.dcache.overall_miss_latency::.cpu2.data  97807152000                       # number of overall miss cycles
system.cpu2.dcache.overall_miss_latency::total  97807152000                       # number of overall miss cycles
system.cpu2.dcache.overall_miss_rate::.cpu2.data     0.096355                       # miss rate for overall accesses
system.cpu2.dcache.overall_miss_rate::total     0.096355                       # miss rate for overall accesses
system.cpu2.dcache.overall_misses::.cpu2.data       764208                       # number of overall misses
system.cpu2.dcache.overall_misses::total       764208                       # number of overall misses
system.cpu2.dcache.overall_mshr_miss_latency::.cpu2.data  96278738000                       # number of overall MSHR miss cycles
system.cpu2.dcache.overall_mshr_miss_latency::total  96278738000                       # number of overall MSHR miss cycles
system.cpu2.dcache.overall_mshr_miss_rate::.cpu2.data     0.096355                       # mshr miss rate for overall accesses
system.cpu2.dcache.overall_mshr_miss_rate::total     0.096355                       # mshr miss rate for overall accesses
system.cpu2.dcache.overall_mshr_misses::.cpu2.data       764208                       # number of overall MSHR misses
system.cpu2.dcache.overall_mshr_misses::total       764208                       # number of overall MSHR misses
system.cpu2.dcache.pwrStateResidencyTicks::UNDEFINED 186042832000                       # Cumulative time (in ticks) in various power states
system.cpu2.dcache.replacements                763183                       # number of replacements
system.cpu2.dcache.tags.age_task_id_blocks_1024::0           13                       # Occupied blocks per task id
[...]
system.mem_ctrl.wrPerTurnAround::gmean      18.310781                       # Writes before turning the bus around for reads
system.mem_ctrl.wrPerTurnAround::stdev       1.236482                       # Writes before turning the bus around for reads
system.mem_ctrl.wrPerTurnAround::16             11150     12.61%     12.61% # Writes before turning the bus around for reads
system.mem_ctrl.wrPerTurnAround::17              1972      2.23%     14.84% # Writes before turning the bus around for reads
system.mem_ctrl.wrPerTurnAround::18             35555     40.21%     55.05% # Writes before turning the bus around for reads
system.mem_ctrl.wrPerTurnAround::19             28330     32.04%     87.09% # Writes before turning the bus around for reads
system.mem_ctrl.wrPerTurnAround::20              8559      9.68%     96.77% # Writes before turning the bus around for reads
system.mem_ctrl.wrPerTurnAround::21              1863      2.11%     98.88% # Writes before turning the bus around for reads
system.mem_ctrl.wrPerTurnAround::22               685      0.77%     99.65% # Writes before turning the bus around for reads
system.mem_ctrl.wrPerTurnAround::23               206      0.23%     99.88% # Writes before turning the bus around for reads
system.mem_ctrl.wrPerTurnAround::24                78      0.09%     99.97% # Writes before turning the bus around for reads
system.mem_ctrl.wrPerTurnAround::25                18      0.02%     99.99% # Writes before turning the bus around for reads
system.mem_ctrl.wrPerTurnAround::26                 5      0.01%    100.00% # Writes before turning the bus around for reads
system.mem_ctrl.wrPerTurnAround::27                 2      0.00%    100.00% # Writes before turning the bus around for reads
system.mem_ctrl.wrPerTurnAround::total          88423                       # Writes before turning the bus around for reads
system.mem_ctrl.wrQLenPdf::0                        1                       # What write queue length does an incoming req see
system.mem_ctrl.wrQLenPdf::1                        1                       # What write queue length does an incoming req see
system.mem_ctrl.wrQLenPdf::2                        1                       # What write queue length does an incoming req see
system.mem_ctrl.wrQLenPdf::3                        1                       # What write queue length does an incoming req see
system.mem_ctrl.wrQLenPdf::4                        1                       # What write queue length does an incoming req see
system.mem_ctrl.wrQLenPdf::5                        1                       # What write queue length does an incoming req see
system.mem_ctrl.wrQLenPdf::6                        1                       # What write queue length does an incoming req see
system.mem_ctrl.wrQLenPdf::7                        1                       # What write queue length does an incoming req see
system.mem_ctrl.wrQLenPdf::8                        1                       # What write queue length does an incoming req see
system.mem_ctrl.wrQLenPdf::9                        1                       # What write queue length does an incoming req see
system.mem_ctrl.wrQLenPdf::10                       1                       # What write queue length does an incoming req see
system.mem_ctrl.wrQLenPdf::11                       1                       # What write queue length does an incoming req see
system.mem_ctrl.wrQLenPdf::12                       1                       # What write queue length does an incoming req see
system.mem_ctrl.wrQLenPdf::13                       1                       # What write queue length does an incoming req see
system.mem_ctrl.wrQLenPdf::14                       1                       # What write queue length does an incoming req see
system.mem_ctrl.wrQLenPdf::15                   73783                       # What write queue length does an incoming req see
system.mem_ctrl.wrQLenPdf::16                   76731                       # What write queue length does an incoming req see
system.mem_ctrl.wrQLenPdf::17                   84127                       # What write queue length does an incoming req see
system.mem_ctrl.wrQLenPdf::18                   88426                       # What write queue length does an incoming req see
system.mem_ctrl.wrQLenPdf::19                   90310                       # What write queue length does an incoming req see
system.mem_ctrl.wrQLenPdf::20                   91560                       # What write queue length does an incoming req see
system.mem_ctrl.wrQLenPdf::21                   91581                       # What write queue length does an incoming req see
system.mem_ctrl.wrQLenPdf::22                   92199                       # What write queue length does an incoming req see
system.mem_ctrl.wrQLenPdf::23                   92917                       # What write queue length does an incoming req see
system.mem_ctrl.wrQLenPdf::24                   92478                       # What write queue length does an incoming req see
system.mem_ctrl.wrQLenPdf::25                   93608                       # What write queue length does an incoming req see
system.mem_ctrl.wrQLenPdf::26                  102661                       # What write queue length does an incoming req see
system.mem_ctrl.wrQLenPdf::27                   95109                       # What write queue length does an incoming req see
system.mem_ctrl.wrQLenPdf::28                   97976                       # What write queue length does an incoming req see
system.mem_ctrl.wrQLenPdf::29                   92299                       # What write queue length does an incoming req see
system.mem_ctrl.wrQLenPdf::30                   88781                       # What write queue length does an incoming req see
system.mem_ctrl.wrQLenPdf::31                   88635                       # What write queue length does an incoming req see
system.mem_ctrl.wrQLenPdf::32                   88674                       # What write queue length does an incoming req see
system.mem_ctrl.wrQLenPdf::33                     726                       # What write queue length does an incoming req see
system.mem_ctrl.wrQLenPdf::34                     187                       # What write queue length does an incoming req see
system.mem_ctrl.wrQLenPdf::35                      28                       # What write queue length does an incoming req see
system.mem_ctrl.wrQLenPdf::36                       8                       # What write queue length does an incoming req see
system.mem_ctrl.wrQLenPdf::37                       0                       # What write queue length does an incoming req see
system.mem_ctrl.wrQLenPdf::38                       0                       # What write queue length does an incoming req see
system.mem_ctrl.wrQLenPdf::39                       0                       # What write queue length does an incoming req see
system.mem_ctrl.wrQLenPdf::40                       0                       # What write queue length does an incoming req see
system.mem_ctrl.wrQLenPdf::41                       0                       # What write queue length does an incoming req see
system.mem_ctrl.wrQLenPdf::42                       0                       # What write queue length does an incoming req see
system.mem_ctrl.wrQLenPdf::43                       0                       # What write queue length does an incoming req see
system.mem_ctrl.wrQLenPdf::44                       0                       # What write queue length does an incoming req see
system.mem_ctrl.wrQLenPdf::45                       0                       # What write queue length does an incoming req see
system.mem_ctrl.wrQLenPdf::46                       0                       # What write queue length does an incoming req see
system.mem_ctrl.wrQLenPdf::47                       0                       # What write queue length does an incoming req see
system.mem_ctrl.wrQLenPdf::48                       0                       # What write queue length does an incoming req see
system.mem_ctrl.wrQLenPdf::49                       0                       # What write queue length does an incoming req see
system.mem_ctrl.wrQLenPdf::50                       0                       # What write queue length does an incoming req see
system.mem_ctrl.wrQLenPdf::51                       0                       # What write queue length does an incoming req see
system.mem_ctrl.wrQLenPdf::52                       0                       # What write queue length does an incoming req see
system.mem_ctrl.wrQLenPdf::53                       0                       # What write queue length does an incoming req see
system.mem_ctrl.wrQLenPdf::54                       0                       # What write queue length does an incoming req see
system.mem_ctrl.wrQLenPdf::55                       0                       # What write queue length does an incoming req see
system.mem_ctrl.wrQLenPdf::56                       0                       # What write queue length does an incoming req see
system.mem_ctrl.wrQLenPdf::57                       0                       # What write queue length does an incoming req see
system.mem_ctrl.wrQLenPdf::58                       0                       # What write queue length does an incoming req see
system.mem_ctrl.wrQLenPdf::59                       0                       # What write queue length does an incoming req see
system.mem_ctrl.wrQLenPdf::60                       0                       # What write queue length does an incoming req see
system.mem_ctrl.wrQLenPdf::61                       0                       # What write queue length does an incoming req see
system.mem_ctrl.wrQLenPdf::62                       0                       # What write queue length does an incoming req see
system.mem_ctrl.wrQLenPdf::63                       0                       # What write queue length does an incoming req see
system.mem_ctrl.writeBursts                   1622819                       # Number of DRAM write bursts, including those merged in the write queue
system.mem_ctrl.writePktSize::0                     0                       # Write request sizes (log2)
system.mem_ctrl.writePktSize::1                     0                       # Write request sizes (log2)
system.mem_ctrl.writePktSize::2                     0                       # Write request sizes (log2)
system.mem_ctrl.writePktSize::3                     0                       # Write request sizes (log2)
system.mem_ctrl.writePktSize::4                     0                       # Write request sizes (log2)
system.mem_ctrl.writePktSize::5                     0                       # Write request sizes (log2)
system.mem_ctrl.writePktSize::6               1622819                       # Write request sizes (log2)
system.mem_ctrl.writeReqs                     1622819                       # Number of write requests accepted
system.mem_ctrl.writeRowHitRate                 64.23                       # Row buffer hit rate for writes
system.mem_ctrl.writeRowHits                  1042391                       # Number of row buffer hits during writes
system.mem_ctrl_0.actBackEnergy           83241115650                       # Energy for active background per rank (pJ)
system.mem_ctrl_0.actEnergy                7865216940                       # Energy for activate commands per rank (pJ)
system.mem_ctrl_0.actPowerDownEnergy                0                       # Energy for active power-down per rank (pJ)
system.mem_ctrl_0.averagePower             653.116538                       # Core power per rank (mW)
system.mem_ctrl_0.memoryStateTime::IDLE     463813940                       # Time in different power states
system.mem_ctrl_0.memoryStateTime::REF     6212180000                       # Time in different power states
system.mem_ctrl_0.memoryStateTime::SREF             0                       # Time in different power states
system.mem_ctrl_0.memoryStateTime::PRE_PDN            0                       # Time in different power states
system.mem_ctrl_0.memoryStateTime::ACT   179366838060                       # Time in different power states
system.mem_ctrl_0.memoryStateTime::ACT_PDN            0                       # Time in different power states
system.mem_ctrl_0.preBackEnergy            1342666080                       # Energy for precharge background per rank (pJ)
system.mem_ctrl_0.preEnergy                4180450560                       # Energy for precharge commands per rank (pJ)
system.mem_ctrl_0.prePowerDownEnergy                0                       # Energy for precharge power-down per rank (pJ)
system.mem_ctrl_0.readEnergy               5958180060                       # Energy for read commands per rank (pJ)
system.mem_ctrl_0.refreshEnergy          14685593520.000002                       # Energy for refresh commands per rank (pJ)
system.mem_ctrl_0.selfRefreshEnergy                 0                       # Energy for self refresh per rank (pJ)
system.mem_ctrl_0.totalEnergy            121507650270                       # Total energy per rank (pJ)
system.mem_ctrl_0.totalIdleTime                     0                       # Total Idle time Per DRAM Rank
system.mem_ctrl_0.writeEnergy              4234427460                       # Energy for write commands per rank (pJ)
system.mem_ctrl_1.actBackEnergy           83175290340                       # Energy for active background per rank (pJ)
system.mem_ctrl_1.actEnergy                7847188440                       # Energy for activate commands per rank (pJ)
system.mem_ctrl_1.actPowerDownEnergy                0                       # Energy for active power-down per rank (pJ)
system.mem_ctrl_1.averagePower             652.816831                       # Core power per rank (mW)
system.mem_ctrl_1.memoryStateTime::IDLE     542144897                       # Time in different power states
system.mem_ctrl_1.memoryStateTime::REF     6212180000                       # Time in different power states
system.mem_ctrl_1.memoryStateTime::SREF             0                       # Time in different power states
system.mem_ctrl_1.memoryStateTime::PRE_PDN            0                       # Time in different power states
system.mem_ctrl_1.memoryStateTime::ACT   179288507103                       # Time in different power states
system.mem_ctrl_1.memoryStateTime::ACT_PDN            0                       # Time in different power states
system.mem_ctrl_1.preBackEnergy            1398097920                       # Energy for precharge background per rank (pJ)
system.mem_ctrl_1.preEnergy                4170875775                       # Energy for precharge commands per rank (pJ)
system.mem_ctrl_1.prePowerDownEnergy                0                       # Energy for precharge power-down per rank (pJ)
system.mem_ctrl_1.readEnergy               5938252320                       # Energy for read commands per rank (pJ)
system.mem_ctrl_1.refreshEnergy          14685593520.000002                       # Energy for refresh commands per rank (pJ)
system.mem_ctrl_1.selfRefreshEnergy                 0                       # Energy for self refresh per rank (pJ)
system.mem_ctrl_1.totalEnergy            121451892075                       # Total energy per rank (pJ)
system.mem_ctrl_1.totalIdleTime                     0                       # Total Idle time Per DRAM Rank
system.mem_ctrl_1.writeEnergy              4236593760                       # Energy for write commands per rank (pJ)
system.membus.pkt_count_system.l2cache.mem_side::system.mem_ctrl.port      4991004                       # Packet count per connected master and slave (bytes)
system.membus.pkt_count_system.l2cache.mem_side::total      4991004                       # Packet count per connected master and slave (bytes)
system.membus.pkt_count::total                4991004                       # Packet count per connected master and slave (bytes)
system.membus.pkt_size_system.l2cache.mem_side::system.mem_ctrl.port    210497536                       # Cumulative packet size per connected master and slave (bytes)
system.membus.pkt_size_system.l2cache.mem_side::total    210497536                       # Cumulative packet size per connected master and slave (bytes)
system.membus.pkt_size::total               210497536                       # Cumulative packet size per connected master and slave (bytes)
system.membus.pwrStateResidencyTicks::UNDEFINED 186042832000                       # Cumulative time (in ticks) in various power states
system.membus.reqLayer8.occupancy         10506077307                       # Layer occupancy (ticks)
system.membus.reqLayer8.utilization               5.6                       # Layer utilization (%)
system.membus.respLayer0.occupancy         9397878405                       # Layer occupancy (ticks)
system.membus.respLayer0.utilization              5.1                       # Layer utilization (%)
system.membus.snoopTraffic                          0                       # Total snoop traffic (bytes)
system.membus.snoop_fanout::samples           1666207                       # Request fanout histogram
system.membus.snoop_fanout::mean                    0                       # Request fanout histogram
system.membus.snoop_fanout::stdev                   0                       # Request fanout histogram
system.membus.snoop_fanout::underflows              0      0.00%      0.00% # Request fanout histogram
system.membus.snoop_fanout::0                 1666207    100.00%    100.00% # Request fanout histogram
system.membus.snoop_fanout::1                       0      0.00%    100.00% # Request fanout histogram
system.membus.snoop_fanout::overflows               0      0.00%    100.00% # Request fanout histogram
system.membus.snoop_fanout::min_value               0                       # Request fanout histogram
system.membus.snoop_fanout::max_value               0                       # Request fanout histogram
system.membus.snoop_fanout::total             1666207                       # Request fanout histogram
system.membus.snoop_filter.hit_multi_requests            0                       # Number of requests hitting in the snoop filter with multiple (>1) holders of the requested data.
system.membus.snoop_filter.hit_multi_snoops            0                       # Number of snoops hitting in the snoop filter with multiple (>1) holders of the requested data.
system.membus.snoop_filter.hit_single_requests      1658592                       # Number of requests hitting in the snoop filter with a single holder of the requested data.
system.membus.snoop_filter.hit_single_snoops            0                       # Number of snoops hitting in the snoop filter with a single holder of the requested data.
system.membus.snoop_filter.tot_requests       3324799                       # Total number of requests made to the snoop filter.
system.membus.snoop_filter.tot_snoops               0                       # Total number of snoops made to the snoop filter.
system.membus.snoops                                0                       # Total snoops (count)
system.membus.trans_dist::ReadResp            1559090                       # Transaction distribution
system.membus.trans_dist::WritebackDirty      1622819                       # Transaction distribution
system.membus.trans_dist::CleanEvict            35773                       # Transaction distribution
system.membus.trans_dist::ReadExReq            107115                       # Transaction distribution
system.membus.trans_dist::ReadExResp           107115                       # Transaction distribution
system.membus.trans_dist::ReadSharedReq       1559092                       # Transaction distribution

---------- End Simulation Statistics   ----------
