
---------- Begin Simulation Statistics ----------
final_tick                               1742469679000                       # Number of ticks from beginning of simulation (restored from checkpoints and never reset)
host_inst_rate                                 260587                       # Simulator instruction rate (inst/s)
host_mem_usage                                 885508                       # Number of bytes of host memory used
host_op_rate                                   431135                       # Simulator op (including micro ops) rate (op/s)
host_seconds                                  1429.36                       # Real time elapsed on the host
host_tick_rate                             1219053157                       # Simulator tick rate (ticks/s)
sim_freq                                 1000000000000                       # Frequency of simulated ticks
sim_insts                                   372473344                       # Number of instructions simulated
sim_ops                                     616249120                       # Number of ops (including micro ops) simulated
sim_seconds                                  1.742470                       # Number of seconds simulated
sim_ticks                                1742469679000                       # Number of ticks simulated
system.clk_domain.clock                          1000                       # Clock period in ticks
system.clk_domain.voltage_domain.voltage            1                       # Voltage in Volts
system.cpu0.Branches                          1225834                       # Number of branches fetched
system.cpu0.committedInsts                    5971651                       # Number of instructions committed
system.cpu0.committedOps                     11042729                       # Number of ops (including micro ops) committed
system.cpu0.dcache.ReadReq_accesses::.cpu0.data      2755582                       # number of ReadReq accesses(hits+misses)
system.cpu0.dcache.ReadReq_accesses::total      2755582                       # number of ReadReq accesses(hits+misses)
system.cpu0.dcache.ReadReq_avg_miss_latency::.cpu0.data 110883.317189                       # average ReadReq miss latency
system.cpu0.dcache.ReadReq_avg_miss_latency::total 110883.317189                       # average ReadReq miss latency
system.cpu0.dcache.ReadReq_avg_mshr_miss_latency::.cpu0.data 108883.317189                       # average ReadReq mshr miss latency
system.cpu0.dcache.ReadReq_avg_mshr_miss_latency::total 108883.317189                       # average ReadReq mshr miss latency
system.cpu0.dcache.ReadReq_hits::.cpu0.data      2742161                       # number of ReadReq hits
system.cpu0.dcache.ReadReq_hits::total        2742161                       # number of ReadReq hits
system.cpu0.dcache.ReadReq_miss_latency::.cpu0.data   1488165000                       # number of ReadReq miss cycles
system.cpu0.dcache.ReadReq_miss_latency::total   1488165000                       # number of ReadReq miss cycles
system.cpu0.dcache.ReadReq_miss_rate::.cpu0.data     0.004870                       # miss rate for ReadReq accesses
system.cpu0.dcache.ReadReq_miss_rate::total     0.004870                       # miss rate for ReadReq accesses
system.cpu0.dcache.ReadReq_misses::.cpu0.data        13421                       # number of ReadReq misses
system.cpu0.dcache.ReadReq_misses::total        13421                       # number of ReadReq misses
system.cpu0.dcache.ReadReq_mshr_miss_latency::.cpu0.data   1461323000                       # number of ReadReq MSHR miss cycles
system.cpu0.dcache.ReadReq_mshr_miss_latency::total   1461323000                       # number of ReadReq MSHR miss cycles
system.cpu0.dcache.ReadReq_mshr_miss_rate::.cpu0.data     0.004870                       # mshr miss rate for ReadReq accesses
system.cpu0.dcache.ReadReq_mshr_miss_rate::total     0.004870                       # mshr miss rate for ReadReq accesses
system.cpu0.dcache.ReadReq_mshr_misses::.cpu0.data        13421                       # number of ReadReq MSHR misses
system.cpu0.dcache.ReadReq_mshr_misses::total        13421                       # number of ReadReq MSHR misses
system.cpu0.dcache.WriteReq_accesses::.cpu0.data       864634                       # number of WriteReq accesses(hits+misses)
system.cpu0.dcache.WriteReq_accesses::total       864634                       # number of WriteReq accesses(hits+misses)
system.cpu0.dcache.WriteReq_avg_miss_latency::.cpu0.data 69739.420875                       # average WriteReq miss latency
system.cpu0.dcache.WriteReq_avg_miss_latency::total 69739.420875                       # average WriteReq miss latency
system.cpu0.dcache.WriteReq_avg_mshr_miss_latency::.cpu0.data 67739.420875                       # average WriteReq mshr miss latency
system.cpu0.dcache.WriteReq_avg_mshr_miss_latency::total 67739.420875                       # average WriteReq mshr miss latency
system.cpu0.dcache.WriteReq_hits::.cpu0.data       827958                       # number of WriteReq hits
system.cpu0.dcache.WriteReq_hits::total        827958                       # number of WriteReq hits
system.cpu0.dcache.WriteReq_miss_latency::.cpu0.data   2557763000                       # number of WriteReq miss cycles
system.cpu0.dcache.WriteReq_miss_latency::total   2557763000                       # number of WriteReq miss cycles
system.cpu0.dcache.WriteReq_miss_rate::.cpu0.data     0.042418                       # miss rate for WriteReq accesses
system.cpu0.dcache.WriteReq_miss_rate::total     0.042418                       # miss rate for WriteReq accesses
system.cpu0.dcache.WriteReq_misses::.cpu0.data        36676                       # number of WriteReq misses
system.cpu0.dcache.WriteReq_misses::total        36676                       # number of WriteReq misses
system.cpu0.dcache.WriteReq_mshr_miss_latency::.cpu0.data   2484411000                       # number of WriteReq MSHR miss cycles
system.cpu0.dcache.WriteReq_mshr_miss_latency::total   2484411000                       # number of WriteReq MSHR miss cycles
system.cpu0.dcache.WriteReq_mshr_miss_rate::.cpu0.data     0.042418                       # mshr miss rate for WriteReq accesses
system.cpu0.dcache.WriteReq_mshr_miss_rate::total     0.042418                       # mshr miss rate for WriteReq accesses
system.cpu0.dcache.WriteReq_mshr_misses::.cpu0.data        36676                       # number of WriteReq MSHR misses
system.cpu0.dcache.WriteReq_mshr_misses::total        36676                       # number of WriteReq MSHR misses
system.cpu0.dcache.avg_blocked_cycles::no_mshrs          nan                       # average number of cycles each access was blocked
system.cpu0.dcache.avg_blocked_cycles::no_targets          nan                       # average number of cycles each access was blocked
system.cpu0.dcache.blocked::no_mshrs                0                       # number of cycles access was blocked
system.cpu0.dcache.blocked::no_targets              0                       # number of cycles access was blocked
system.cpu0.dcache.blocked_cycles::no_mshrs            0                       # number of cycles access was blocked
system.cpu0.dcache.blocked_cycles::no_targets            0                       # number of cycles access was blocked
system.cpu0.dcache.demand_accesses::.cpu0.data      3620216                       # number of demand (read+write) accesses
system.cpu0.dcache.demand_accesses::total      3620216                       # number of demand (read+write) accesses
system.cpu0.dcache.demand_avg_miss_latency::.cpu0.data 80761.881949                       # average overall miss latency
system.cpu0.dcache.demand_avg_miss_latency::total 80761.881949                       # average overall miss latency
system.cpu0.dcache.demand_avg_mshr_miss_latency::.cpu0.data 78761.881949                       # average overall mshr miss latency
system.cpu0.dcache.demand_avg_mshr_miss_latency::total 78761.881949                       # average overall mshr miss latency
system.cpu0.dcache.demand_hits::.cpu0.data      3570119                       # number of demand (read+write) hits
system.cpu0.dcache.demand_hits::total         3570119                       # number of demand (read+write) hits
system.cpu0.dcache.demand_miss_latency::.cpu0.data   4045928000                       # number of demand (read+write) miss cycles
system.cpu0.dcache.demand_miss_latency::total   4045928000                       # number of demand (read+write) miss cycles
system.cpu0.dcache.demand_miss_rate::.cpu0.data     0.013838                       # miss rate for demand accesses
system.cpu0.dcache.demand_miss_rate::total     0.013838                       # miss rate for demand accesses
system.cpu0.dcache.demand_misses::.cpu0.data        50097                       # number of demand (read+write) misses
system.cpu0.dcache.demand_misses::total         50097                       # number of demand (read+write) misses
system.cpu0.dcache.demand_mshr_miss_latency::.cpu0.data   3945734000                       # number of demand (read+write) MSHR miss cycles
system.cpu0.dcache.demand_mshr_miss_latency::total   3945734000                       # number of demand (read+write) MSHR miss cycles
system.cpu0.dcache.demand_mshr_miss_rate::.cpu0.data     0.013838                       # mshr miss rate for demand accesses
system.cpu0.dcache.demand_mshr_miss_rate::total     0.013838                       # mshr miss rate for demand accesses
system.cpu0.dcache.demand_mshr_misses::.cpu0.data        50097                       # number of demand (read+write) MSHR misses
system.cpu0.dcache.demand_mshr_misses::total        50097                       # number of demand (read+write) MSHR misses
system.cpu0.dcache.overall_accesses::.cpu0.data      3620216                       # number of overall (read+write) accesses
system.cpu0.dcache.overall_accesses::total      3620216                       # number of overall (read+write) accesses
system.cpu0.dcache.overall_avg_miss_latency::.cpu0.data 80761.881949                       # average overall miss latency
system.cpu0.dcache.overall_avg_miss_latency::total 80761.881949                       # average overall miss latency
system.cpu0.dcache.overall_avg_mshr_miss_latency::.cpu0.data 78761.881949                       # average overall mshr miss latency
system.cpu0.dcache.overall_avg_mshr_miss_latency::total 78761.881949                       # average overall mshr miss latency
system.cpu0.dcache.overall_hits::.cpu0.data      3570119                       # number of overall hits
system.cpu0.dcache.overall_hits::total        3570119                       # number of overall hits
system.cpu0.dcache.overall_miss_latency::.cpu0.data   4045928000                       # number of overall miss cycles
system.cpu0.dcache.overall_miss_latency::total   4045928000                       # number of overall miss cycles
system.cpu0.dcache.overall_miss_rate::.cpu0.data     0.013838                       # miss rate for overall accesses
system.cpu0.dcache.overall_miss_rate::total     0.013838                       # miss rate for overall accesses
system.cpu0.dcache.overall_misses::.cpu0.data        50097                       # number of overall misses
system.cpu0.dcache.overall_misses::total        50097                       # number of overall misses
system.cpu0.dcache.overall_mshr_miss_latency::.cpu0.data   3945734000                       # number of overall MSHR miss cycles
system.cpu0.dcache.overall_mshr_miss_latency::total   3945734000                       # number of overall MSHR miss cycles
system.cpu0.dcache.overall_mshr_miss_rate::.cpu0.data     0.013838                       # mshr miss rate for overall accesses
system.cpu0.dcache.overall_mshr_miss_rate::total     0.013838                       # mshr miss rate for overall accesses
system.cpu0.dcache.overall_mshr_misses::.cpu0.data        50097                       # number of overall MSHR misses
system.cpu0.dcache.overall_mshr_misses::total        50097                       # number of overall MSHR misses
system.cpu0.dcache.pwrStateResidencyTicks::UNDEFINED 1742469679000                       # Cumulative time (in ticks) in various power states
system.cpu0.dcache.replacements                 49073                       # number of replacements
system.cpu0.dcache.tags.age_task_id_blocks_1024::4         1024                       # Occupied blocks per task id
system.cpu0.dcache.tags.avg_refs            72.264128                       # Average number of references to valid blocks.
system.cpu0.dcache.tags.data_accesses         7290529                       # Number of data accesses
system.cpu0.dcache.tags.occ_blocks::.cpu0.data  1023.872047                       # Average occupied blocks per requestor
system.cpu0.dcache.tags.occ_percent::.cpu0.data     0.999875                       # Average percentage of cache occupancy
system.cpu0.dcache.tags.occ_percent::total     0.999875                       # Average percentage of cache occupancy
system.cpu0.dcache.tags.occ_task_id_blocks::1024         1024                       # Occupied blocks per task id
system.cpu0.dcache.tags.occ_task_id_percent::1024            1                       # Percentage of cache occupancy per task id
system.cpu0.dcache.tags.pwrStateResidencyTicks::UNDEFINED 1742469679000                       # Cumulative time (in ticks) in various power states
system.cpu0.dcache.tags.sampled_refs            50097                       # Sample count of references to valid blocks.
system.cpu0.dcache.tags.tag_accesses          7290529                       # Number of tag accesses
system.cpu0.dcache.tags.tagsinuse         1023.872047                       # Cycle average of tags in use
system.cpu0.dcache.tags.total_refs            3620216                       # Total number of references to valid blocks.
system.cpu0.dcache.tags.warmup_cycle           218000                       # Cycle when the warmup percentage was hit.
system.cpu0.dcache.writebacks::.writebacks        37094                       # number of writebacks
system.cpu0.dcache.writebacks::total            37094                       # number of writebacks
system.cpu0.dtb.rdAccesses                    2755582                       # TLB accesses on read requests
system.cpu0.dtb.rdMisses                          896                       # TLB misses on read requests
system.cpu0.dtb.walker.pwrStateResidencyTicks::UNDEFINED 1742469679000                       # Cumulative time (in ticks) in various power states
system.cpu0.dtb.wrAccesses                     864634                       # TLB accesses on write requests
system.cpu0.dtb.wrMisses                           92                       # TLB misses on write requests
system.cpu0.icache.ReadReq_accesses::.cpu0.inst      7637575                       # number of ReadReq accesses(hits+misses)
system.cpu0.icache.ReadReq_accesses::total      7637575                       # number of ReadReq accesses(hits+misses)
system.cpu0.icache.ReadReq_avg_miss_latency::.cpu0.inst 88279.495525                       # average ReadReq miss latency
system.cpu0.icache.ReadReq_avg_miss_latency::total 88279.495525                       # average ReadReq miss latency
system.cpu0.icache.ReadReq_avg_mshr_miss_latency::.cpu0.inst 86279.495525                       # average ReadReq mshr miss latency
system.cpu0.icache.ReadReq_avg_mshr_miss_latency::total 86279.495525                       # average ReadReq mshr miss latency
system.cpu0.icache.ReadReq_hits::.cpu0.inst      7635117                       # number of ReadReq hits
system.cpu0.icache.ReadReq_hits::total        7635117                       # number of ReadReq hits
system.cpu0.icache.ReadReq_miss_latency::.cpu0.inst    216991000                       # number of ReadReq miss cycles
system.cpu0.icache.ReadReq_miss_latency::total    216991000                       # number of ReadReq miss cycles
system.cpu0.icache.ReadReq_miss_rate::.cpu0.inst     0.000322                       # miss rate for ReadReq accesses
system.cpu0.icache.ReadReq_miss_rate::total     0.000322                       # miss rate for ReadReq accesses
system.cpu0.icache.ReadReq_misses::.cpu0.inst         2458                       # number of ReadReq misses
system.cpu0.icache.ReadReq_misses::total         2458                       # number of ReadReq misses
system.cpu0.icache.ReadReq_mshr_miss_latency::.cpu0.inst    212075000                       # number of ReadReq MSHR miss cycles
system.cpu0.icache.ReadReq_mshr_miss_latency::total    212075000                       # number of ReadReq MSHR miss cycles
system.cpu0.icache.ReadReq_mshr_miss_rate::.cpu0.inst     0.000322                       # mshr miss rate for ReadReq accesses
system.cpu0.icache.ReadReq_mshr_miss_rate::total     0.000322                       # mshr miss rate for ReadReq accesses
system.cpu0.icache.ReadReq_mshr_misses::.cpu0.inst         2458                       # number of ReadReq MSHR misses
system.cpu0.icache.ReadReq_mshr_misses::total         2458                       # number of ReadReq MSHR misses
system.cpu0.icache.avg_blocked_cycles::no_mshrs          nan                       # average number of cycles each access was blocked
system.cpu0.icache.avg_blocked_cycles::no_targets          nan                       # average number of cycles each access was blocked
system.cpu0.icache.blocked::no_mshrs                0                       # number of cycles access was blocked
system.cpu0.icache.blocked::no_targets              0                       # number of cycles access was blocked
system.cpu0.icache.blocked_cycles::no_mshrs            0                       # number of cycles access was blocked
system.cpu0.icache.blocked_cycles::no_targets            0                       # number of cycles access was blocked
system.cpu0.icache.demand_accesses::.cpu0.inst      7637575                       # number of demand (read+write) accesses
system.cpu0.icache.demand_accesses::total      7637575                       # number of demand (read+write) accesses
system.cpu0.icache.demand_avg_miss_latency::.cpu0.inst 88279.495525                       # average overall miss latency
system.cpu0.icache.demand_avg_miss_latency::total 88279.495525                       # average overall miss latency
system.cpu0.icache.demand_avg_mshr_miss_latency::.cpu0.inst 86279.495525                       # average overall mshr miss latency
system.cpu0.icache.demand_avg_mshr_miss_latency::total 86279.495525                       # average overall mshr miss latency
system.cpu0.icache.demand_hits::.cpu0.inst      7635117                       # number of demand (read+write) hits
system.cpu0.icache.demand_hits::total         7635117                       # number of demand (read+write) hits
system.cpu0.icache.demand_miss_latency::.cpu0.inst    216991000                       # number of demand (read+write) miss cycles
system.cpu0.icache.demand_miss_latency::total    216991000                       # number of demand (read+write) miss cycles
system.cpu0.icache.demand_miss_rate::.cpu0.inst     0.000322                       # miss rate for demand accesses
system.cpu0.icache.demand_miss_rate::total     0.000322                       # miss rate for demand accesses
system.cpu0.icache.demand_misses::.cpu0.inst         2458                       # number of demand (read+write) misses
system.cpu0.icache.demand_misses::total          2458                       # number of demand (read+write) misses
system.cpu0.icache.demand_mshr_miss_latency::.cpu0.inst    212075000                       # number of demand (read+write) MSHR miss cycles
system.cpu0.icache.demand_mshr_miss_latency::total    212075000                       # number of demand (read+write) MSHR miss cycles
system.cpu0.icache.demand_mshr_miss_rate::.cpu0.inst     0.000322                       # mshr miss rate for demand accesses
system.cpu0.icache.demand_mshr_miss_rate::total     0.000322                       # mshr miss rate for demand accesses
system.cpu0.icache.demand_mshr_misses::.cpu0.inst         2458                       # number of demand (read+write) MSHR misses
system.cpu0.icache.demand_mshr_misses::total         2458                       # number of demand (read+write) MSHR misses
system.cpu0.icache.overall_accesses::.cpu0.inst      7637575                       # number of overall (read+write) accesses
system.cpu0.icache.overall_accesses::total      7637575                       # number of overall (read+write) accesses
system.cpu0.icache.overall_avg_miss_latency::.cpu0.inst 88279.495525                       # average overall miss latency
system.cpu0.icache.overall_avg_miss_latency::total 88279.495525                       # average overall miss latency
system.cpu0.icache.overall_avg_mshr_miss_latency::.cpu0.inst 86279.495525                       # average overall mshr miss latency
system.cpu0.icache.overall_avg_mshr_miss_latency::total 86279.495525                       # average overall mshr miss latency
system.cpu0.icache.overall_hits::.cpu0.inst      7635117                       # number of overall hits
system.cpu0.icache.overall_hits::total        7635117                       # number of overall hits
system.cpu0.icache.overall_miss_latency::.cpu0.inst    216991000                       # number of overall miss cycles
system.cpu0.icache.overall_miss_latency::total    216991000                       # number of overall miss cycles
system.cpu0.icache.overall_miss_rate::.cpu0.inst     0.000322                       # miss rate for overall accesses
system.cpu0.icache.overall_miss_rate::total     0.000322                       # miss rate for overall accesses
system.cpu0.icache.overall_misses::.cpu0.inst         2458                       # number of overall misses
system.cpu0.icache.overall_misses::total         2458                       # number of overall misses
system.cpu0.icache.overall_mshr_miss_latency::.cpu0.inst    212075000                       # number of overall MSHR miss cycles
system.cpu0.icache.overall_mshr_miss_latency::total    212075000                       # number of overall MSHR miss cycles
system.cpu0.icache.overall_mshr_miss_rate::.cpu0.inst     0.000322                       # mshr miss rate for overall accesses
system.cpu0.icache.overall_mshr_miss_rate::total     0.000322                       # mshr miss rate for overall accesses
system.cpu0.icache.overall_mshr_misses::.cpu0.inst         2458                       # number of overall MSHR misses
system.cpu0.icache.overall_mshr_misses::total         2458                       # number of overall MSHR misses
system.cpu0.icache.pwrStateResidencyTicks::UNDEFINED 1742469679000                       # Cumulative time (in ticks) in various power states
system.cpu0.icache.replacements                  2202                       # number of replacements
system.cpu0.icache.tags.age_task_id_blocks_1024::4          256                       # Occupied blocks per task id
system.cpu0.icache.tags.avg_refs          3107.231489                       # Average number of references to valid blocks.
system.cpu0.icache.tags.data_accesses        15277608                       # Number of data accesses
system.cpu0.icache.tags.occ_blocks::.cpu0.inst   255.979634                       # Average occupied blocks per requestor
system.cpu0.icache.tags.occ_percent::.cpu0.inst     0.999920                       # Average percentage of cache occupancy
system.cpu0.icache.tags.occ_percent::total     0.999920                       # Average percentage of cache occupancy
system.cpu0.icache.tags.occ_task_id_blocks::1024          256                       # Occupied blocks per task id
system.cpu0.icache.tags.occ_task_id_percent::1024            1                       # Percentage of cache occupancy per task id
system.cpu0.icache.tags.pwrStateResidencyTicks::UNDEFINED 1742469679000                       # Cumulative time (in ticks) in various power states
system.cpu0.icache.tags.sampled_refs             2458                       # Sample count of references to valid blocks.
system.cpu0.icache.tags.tag_accesses         15277608                       # Number of tag accesses
system.cpu0.icache.tags.tagsinuse          255.979634                       # Cycle average of tags in use
system.cpu0.icache.tags.total_refs            7637575                       # Total number of references to valid blocks.
system.cpu0.icache.tags.warmup_cycle           107000                       # Cycle when the warmup percentage was hit.
system.cpu0.idle_fraction                    0.984692                       # Percentage of idle cycles
system.cpu0.interrupts.clk_domain.clock         16000                       # Clock period in ticks
system.cpu0.interrupts.pwrStateResidencyTicks::UNDEFINED 1742469679000                       # Cumulative time (in ticks) in various power states
system.cpu0.itb.rdAccesses                          0                       # TLB accesses on read requests
system.cpu0.itb.rdMisses                            0                       # TLB misses on read requests
system.cpu0.itb.walker.pwrStateResidencyTicks::UNDEFINED 1742469679000                       # Cumulative time (in ticks) in various power states
system.cpu0.itb.wrAccesses                    7637575                       # TLB accesses on write requests
system.cpu0.itb.wrMisses                          284                       # TLB misses on write requests
system.cpu0.not_idle_fraction                0.015308                       # Percentage of non-idle cycles
system.cpu0.numCycles                        26673338                       # number of cpu cycles simulated
system.cpu0.numWorkItemsCompleted                   0                       # number of work items this cpu completed
system.cpu0.numWorkItemsStarted                     0                       # number of work items this cpu started
system.cpu0.num_busy_cycles              408309.521042                       # Number of busy cycles
system.cpu0.num_cc_register_reads             4749339                       # number of times the CC registers were read
system.cpu0.num_cc_register_writes            3541090                       # number of times the CC registers were written
system.cpu0.num_conditional_control_insts       795867                       # number of instructions that are conditional controls
system.cpu0.num_fp_alu_accesses                 73417                       # Number of float alu accesses
system.cpu0.num_fp_insts                        73417                       # number of float instructions
system.cpu0.num_fp_register_reads              100729                       # number of times the floating registers were read
system.cpu0.num_fp_register_writes              53576                       # number of times the floating registers were written
system.cpu0.num_func_calls                      18274                       # number of times a function call or return occured
system.cpu0.num_idle_cycles              26265028.478958                       # Number of idle cycles
system.cpu0.num_int_alu_accesses             10989573                       # Number of integer alu accesses
system.cpu0.num_int_insts                    10989573                       # number of integer instructions
system.cpu0.num_int_register_reads           22870723                       # number of times the integer registers were read
system.cpu0.num_int_register_writes           8959437                       # number of times the integer registers were written
system.cpu0.num_load_insts                    2755555                       # Number of load instructions
system.cpu0.num_mem_refs                      3620179                       # number of memory refs
system.cpu0.num_store_insts                    864624                       # Number of store instructions
system.cpu0.num_vec_alu_accesses                    0                       # Number of vector alu accesses
system.cpu0.num_vec_insts                           0                       # number of vector instructions
system.cpu0.num_vec_register_reads                  0                       # number of times the vector registers were read
system.cpu0.num_vec_register_writes                 0                       # number of times the vector registers were written
system.cpu0.op_class::No_OpClass                19405      0.18%      0.18% # Class of executed instruction
system.cpu0.op_class::IntAlu                  7326923     66.35%     66.53% # Class of executed instruction
system.cpu0.op_class::IntMult                     415      0.00%     66.53% # Class of executed instruction
system.cpu0.op_class::IntDiv                    34769      0.31%     66.84% # Class of executed instruction
system.cpu0.op_class::FloatAdd                   2884      0.03%     66.87% # Class of executed instruction
system.cpu0.op_class::FloatCmp                      0      0.00%     66.87% # Class of executed instruction
system.cpu0.op_class::FloatCvt                   1344      0.01%     66.88% # Class of executed instruction
system.cpu0.op_class::FloatMult                     0      0.00%     66.88% # Class of executed instruction
system.cpu0.op_class::FloatMultAcc                  0      0.00%     66.88% # Class of executed instruction
system.cpu0.op_class::FloatDiv                      0      0.00%     66.88% # Class of executed instruction
system.cpu0.op_class::FloatMisc                     0      0.00%     66.88% # Class of executed instruction
system.cpu0.op_class::FloatSqrt                     0      0.00%     66.88% # Class of executed instruction
system.cpu0.op_class::SimdAdd                    6146      0.06%     66.94% # Class of executed instruction
system.cpu0.op_class::SimdAddAcc                    0      0.00%     66.94% # Class of executed instruction
system.cpu0.op_class::SimdAlu                   11116      0.10%     67.04% # Class of executed instruction
system.cpu0.op_class::SimdCmp                       0      0.00%     67.04% # Class of executed instruction
system.cpu0.op_class::SimdCvt                   12010      0.11%     67.15% # Class of executed instruction
system.cpu0.op_class::SimdMisc                   6520      0.06%     67.21% # Class of executed instruction
system.cpu0.op_class::SimdMult                      0      0.00%     67.21% # Class of executed instruction
system.cpu0.op_class::SimdMultAcc                   0      0.00%     67.21% # Class of executed instruction
system.cpu0.op_class::SimdShift                  1018      0.01%     67.22% # Class of executed instruction
system.cpu0.op_class::SimdShiftAcc                  0      0.00%     67.22% # Class of executed instruction
system.cpu0.op_class::SimdDiv                       0      0.00%     67.22% # Class of executed instruction
system.cpu0.op_class::SimdSqrt                      0      0.00%     67.22% # Class of executed instruction
system.cpu0.op_class::SimdFloatAdd                  0      0.00%     67.22% # Class of executed instruction
system.cpu0.op_class::SimdFloatAlu                  0      0.00%     67.22% # Class of executed instruction
system.cpu0.op_class::SimdFloatCmp                  0      0.00%     67.22% # Class of executed instruction
system.cpu0.op_class::SimdFloatCvt                  0      0.00%     67.22% # Class of executed instruction
system.cpu0.op_class::SimdFloatDiv                  0      0.00%     67.22% # Class of executed instruction
system.cpu0.op_class::SimdFloatMisc                 0      0.00%     67.22% # Class of executed instruction
system.cpu0.op_class::SimdFloatMult                 0      0.00%     67.22% # Class of executed instruction
system.cpu0.op_class::SimdFloatMultAcc              0      0.00%     67.22% # Class of executed instruction
system.cpu0.op_class::SimdFloatSqrt                 0      0.00%     67.22% # Class of executed instruction
system.cpu0.op_class::SimdReduceAdd                 0      0.00%     67.22% # Class of executed instruction
system.cpu0.op_class::SimdReduceAlu                 0      0.00%     67.22% # Class of executed instruction
system.cpu0.op_class::SimdReduceCmp                 0      0.00%     67.22% # Class of executed instruction
system.cpu0.op_class::SimdFloatReduceAdd            0      0.00%     67.22% # Class of executed instruction
system.cpu0.op_class::SimdFloatReduceCmp            0      0.00%     67.22% # Class of executed instruction
system.cpu0.op_class::SimdAes                       0      0.00%     67.22% # Class of executed instruction
system.cpu0.op_class::SimdAesMix                    0      0.00%     67.22% # Class of executed instruction
system.cpu0.op_class::SimdSha1Hash                  0      0.00%     67.22% # Class of executed instruction
system.cpu0.op_class::SimdSha1Hash2                 0      0.00%     67.22% # Class of executed instruction
system.cpu0.op_class::SimdSha256Hash                0      0.00%     67.22% # Class of executed instruction
system.cpu0.op_class::SimdSha256Hash2               0      0.00%     67.22% # Class of executed instruction
system.cpu0.op_class::SimdShaSigma2                 0      0.00%     67.22% # Class of executed instruction
system.cpu0.op_class::SimdShaSigma3                 0      0.00%     67.22% # Class of executed instruction
system.cpu0.op_class::SimdPredAlu                   0      0.00%     67.22% # Class of executed instruction
system.cpu0.op_class::MemRead                 2736247     24.78%     92.00% # Class of executed instruction
system.cpu0.op_class::MemWrite                 852271      7.72%     99.71% # Class of executed instruction
system.cpu0.op_class::FloatMemRead              19308      0.17%     99.89% # Class of executed instruction
system.cpu0.op_class::FloatMemWrite             12353      0.11%    100.00% # Class of executed instruction
system.cpu0.op_class::IprAccess                     0      0.00%    100.00% # Class of executed instruction
system.cpu0.op_class::InstPrefetch                  0      0.00%    100.00% # Class of executed instruction
system.cpu0.op_class::total                  11042729                       # Class of executed instruction
system.cpu0.pwrStateResidencyTicks::ON   1742469679000                       # Cumulative time (in ticks) in various power states
system.cpu0.workload.numSyscalls                   59                       # Number of system calls
system.cpu1.Branches                          1225834                       # Number of branches fetched
system.cpu1.committedInsts                    5971651                       # Number of instructions committed
system.cpu1.committedOps                     11042729                       # Number of ops (including micro ops) committed
system.cpu1.dcache.ReadReq_accesses::.cpu1.data      2755582                       # number of ReadReq accesses(hits+misses)
system.cpu1.dcache.ReadReq_accesses::total      2755582                       # number of ReadReq accesses(hits+misses)
system.cpu1.dcache.ReadReq_avg_miss_latency::.cpu1.data 111390.360912                       # average ReadReq miss latency
system.cpu1.dcache.ReadReq_avg_miss_latency::total 111390.360912                       # average ReadReq miss latency
system.cpu1.dcache.ReadReq_avg_mshr_miss_latency::.cpu1.data 109390.360912                       # average ReadReq mshr miss latency
system.cpu1.dcache.ReadReq_avg_mshr_miss_latency::total 109390.360912                       # average ReadReq mshr miss latency
system.cpu1.dcache.ReadReq_hits::.cpu1.data      2742033                       # number of ReadReq hits
system.cpu1.dcache.ReadReq_hits::total        2742033                       # number of ReadReq hits
system.cpu1.dcache.ReadReq_miss_latency::.cpu1.data   1509228000                       # number of ReadReq miss cycles
system.cpu1.dcache.ReadReq_miss_latency::total   1509228000                       # number of ReadReq miss cycles
system.cpu1.dcache.ReadReq_miss_rate::.cpu1.data     0.004917                       # miss rate for ReadReq accesses
system.cpu1.dcache.ReadReq_miss_rate::total     0.004917                       # miss rate for ReadReq accesses
system.cpu1.dcache.ReadReq_misses::.cpu1.data        13549                       # number of ReadReq misses
system.cpu1.dcache.ReadReq_misses::total        13549                       # number of ReadReq misses
system.cpu1.dcache.ReadReq_mshr_miss_latency::.cpu1.data   1482130000                       # number of ReadReq MSHR miss cycles
system.cpu1.dcache.ReadReq_mshr_miss_latency::total   1482130000                       # number of ReadReq MSHR miss cycles
system.cpu1.dcache.ReadReq_mshr_miss_rate::.cpu1.data     0.004917                       # mshr miss rate for ReadReq accesses
system.cpu1.dcache.ReadReq_mshr_miss_rate::total     0.004917                       # mshr miss rate for ReadReq accesses
system.cpu1.dcache.ReadReq_mshr_misses::.cpu1.data        13549                       # number of ReadReq MSHR misses
system.cpu1.dcache.ReadReq_mshr_misses::total        13549                       # number of ReadReq MSHR misses
system.cpu1.dcache.WriteReq_accesses::.cpu1.data       864634                       # number of WriteReq accesses(hits+misses)
system.cpu1.dcache.WriteReq_accesses::total       864634                       # number of WriteReq accesses(hits+misses)
system.cpu1.dcache.WriteReq_avg_miss_latency::.cpu1.data 72252.749052                       # average WriteReq miss latency
system.cpu1.dcache.WriteReq_avg_miss_latency::total 72252.749052                       # average WriteReq miss latency
system.cpu1.dcache.WriteReq_avg_mshr_miss_latency::.cpu1.data 70252.749052                       # average WriteReq mshr miss latency
system.cpu1.dcache.WriteReq_avg_mshr_miss_latency::total 70252.749052                       # average WriteReq mshr miss latency
system.cpu1.dcache.WriteReq_hits::.cpu1.data       827985                       # number of WriteReq hits
system.cpu1.dcache.WriteReq_hits::total        827985                       # number of WriteReq hits
system.cpu1.dcache.WriteReq_miss_latency::.cpu1.data   2647991000                       # number of WriteReq miss cycles
system.cpu1.dcache.WriteReq_miss_latency::total   2647991000                       # number of WriteReq miss cycles
system.cpu1.dcache.WriteReq_miss_rate::.cpu1.data     0.042387                       # miss rate for WriteReq accesses
system.cpu1.dcache.WriteReq_miss_rate::total     0.042387                       # miss rate for WriteReq accesses
system.cpu1.dcache.WriteReq_misses::.cpu1.data        36649                       # number of WriteReq misses
system.cpu1.dcache.WriteReq_misses::total        36649                       # number of WriteReq misses
system.cpu1.dcache.WriteReq_mshr_miss_latency::.cpu1.data   2574693000                       # number of WriteReq MSHR miss cycles
system.cpu1.dcache.WriteReq_mshr_miss_latency::total   2574693000                       # number of WriteReq MSHR miss cycles
system.cpu1.dcache.WriteReq_mshr_miss_rate::.cpu1.data     0.042387                       # mshr miss rate for WriteReq accesses
system.cpu1.dcache.WriteReq_mshr_miss_rate::total     0.042387                       # mshr miss rate for WriteReq accesses
system.cpu1.dcache.WriteReq_mshr_misses::.cpu1.data        36649                       # number of WriteReq MSHR misses
system.cpu1.dcache.WriteReq_mshr_misses::total        36649                       # number of WriteReq MSHR misses
system.cpu1.dcache.avg_blocked_cycles::no_mshrs          nan                       # average number of cycles each access was blocked
system.cpu1.dcache.avg_blocked_cycles::no_targets          nan                       # average number of cycles each access was blocked
system.cpu1.dcache.blocked::no_mshrs                0                       # number of cycles access was blocked
system.cpu1.dcache.blocked::no_targets              0                       # number of cycles access was blocked
system.cpu1.dcache.blocked_cycles::no_mshrs            0                       # number of cycles access was blocked
system.cpu1.dcache.blocked_cycles::no_targets            0                       # number of cycles access was blocked
system.cpu1.dcache.demand_accesses::.cpu1.data      3620216                       # number of demand (read+write) accesses
system.cpu1.dcache.demand_accesses::total      3620216                       # number of demand (read+write) accesses
system.cpu1.dcache.demand_avg_miss_latency::.cpu1.data 82816.426949                       # average overall miss latency
system.cpu1.dcache.demand_avg_miss_latency::total 82816.426949                       # average overall miss latency
system.cpu1.dcache.demand_avg_mshr_miss_latency::.cpu1.data 80816.426949                       # average overall mshr miss latency
system.cpu1.dcache.demand_avg_mshr_miss_latency::total 80816.426949                       # average overall mshr miss latency
system.cpu1.dcache.demand_hits::.cpu1.data      3570018                       # number of demand (read+write) hits
system.cpu1.dcache.demand_hits::total         3570018                       # number of demand (read+write) hits
system.cpu1.dcache.demand_miss_latency::.cpu1.data   4157219000                       # number of demand (read+write) miss cycles
system.cpu1.dcache.demand_miss_latency::total   4157219000                       # number of demand (read+write) miss cycles
system.cpu1.dcache.demand_miss_rate::.cpu1.data     0.013866                       # miss rate for demand accesses
system.cpu1.dcache.demand_miss_rate::total     0.013866                       # miss rate for demand accesses
system.cpu1.dcache.demand_misses::.cpu1.data        50198                       # number of demand (read+write) misses
system.cpu1.dcache.demand_misses::total         50198                       # number of demand (read+write) misses
system.cpu1.dcache.demand_mshr_miss_latency::.cpu1.data   4056823000                       # number of demand (read+write) MSHR miss cycles
system.cpu1.dcache.demand_mshr_miss_latency::total   4056823000                       # number of demand (read+write) MSHR miss cycles
system.cpu1.dcache.demand_mshr_miss_rate::.cpu1.data     0.013866                       # mshr miss rate for demand accesses
system.cpu1.dcache.demand_mshr_miss_rate::total     0.013866                       # mshr miss rate for demand accesses
system.cpu1.dcache.demand_mshr_misses::.cpu1.data        50198                       # number of demand (read+write) MSHR misses
system.cpu1.dcache.demand_mshr_misses::total        50198                       # number of demand (read+write) MSHR misses
system.cpu1.dcache.overall_accesses::.cpu1.data      3620216                       # number of overall (read+write) accesses
system.cpu1.dcache.overall_accesses::total      3620216                       # number of overall (read+write) accesses
system.cpu1.dcache.overall_avg_miss_latency::.cpu1.data 82816.426949                       # average overall miss latency
system.cpu1.dcache.overall_avg_miss_latency::total 82816.426949                       # average overall miss latency
system.cpu1.dcache.overall_avg_mshr_miss_latency::.cpu1.data 80816.426949                       # average overall mshr miss latency
system.cpu1.dcache.overall_avg_mshr_miss_latency::total 80816.426949                       # average overall mshr miss latency
system.cpu1.dcache.overall_hits::.cpu1.data      3570018                       # number of overall hits
system.cpu1.dcache.overall_hits::total        3570018                       # number of overall hits
system.cpu1.dcache.overall_miss_latency::.cpu1.data   4157219000                       # number of overall miss cycles
system.cpu1.dcache.overall_miss_latency::total   4157219000                       # number of overall miss cycles
system.cpu1.dcache.overall_miss_rate::.cpu1.data     0.013866                       # miss rate for overall accesses
system.cpu1.dcache.overall_miss_rate::total     0.013866                       # miss rate for overall accesses
system.cpu1.dcache.overall_misses::.cpu1.data        50198                       # number of overall misses
system.cpu1.dcache.overall_misses::total        50198                       # number of overall misses
system.cpu1.dcache.overall_mshr_miss_latency::.cpu1.data   4056823000                       # number of overall MSHR miss cycles
system.cpu1.dcache.overall_mshr_miss_latency::total   4056823000                       # number of overall MSHR miss cycles
system.cpu1.dcache.overall_mshr_miss_rate::.cpu1.data     0.013866                       # mshr miss rate for overall accesses
system.cpu1.dcache.overall_mshr_miss_rate::total     0.013866                       # mshr miss rate for overall accesses
system.cpu1.dcache.overall_mshr_misses::.cpu1.data        50198                       # number of overall MSHR misses
system.cpu1.dcache.overall_mshr_misses::total        50198                       # number of overall MSHR misses
system.cpu1.dcache.pwrStateResidencyTicks::UNDEFINED 1742469679000                       # Cumulative time (in ticks) in various power states
system.cpu1.dcache.replacements                 49174                       # number of replacements
system.cpu1.dcache.tags.age_task_id_blocks_1024::4         1024                       # Occupied blocks per task id
system.cpu1.dcache.tags.avg_refs            72.118730                       # Average number of references to valid blocks.
system.cpu1.dcache.tags.data_accesses         7290630                       # Number of data accesses
system.cpu1.dcache.tags.occ_blocks::.cpu1.data  1023.869618                       # Average occupied blocks per requestor
system.cpu1.dcache.tags.occ_percent::.cpu1.data     0.999873                       # Average percentage of cache occupancy
system.cpu1.dcache.tags.occ_percent::total     0.999873                       # Average percentage of cache occupancy
system.cpu1.dcache.tags.occ_task_id_blocks::1024         1024                       # Occupied blocks per task id
system.cpu1.dcache.tags.occ_task_id_percent::1024            1                       # Percentage of cache occupancy per task id
system.cpu1.dcache.tags.pwrStateResidencyTicks::UNDEFINED 1742469679000                       # Cumulative time (in ticks) in various power states
system.cpu1.dcache.tags.sampled_refs            50198                       # Sample count of references to valid blocks.
system.cpu1.dcache.tags.tag_accesses          7290630                       # Number of tag accesses
system.cpu1.dcache.tags.tagsinuse         1023.869618                       # Cycle average of tags in use
system.cpu1.dcache.tags.total_refs            3620216                       # Total number of references to valid blocks.
system.cpu1.dcache.tags.warmup_cycle           225000                       # Cycle when the warmup percentage was hit.
system.cpu1.dcache.writebacks::.writebacks        37027                       # number of writebacks
system.cpu1.dcache.writebacks::total            37027                       # number of writebacks
system.cpu1.dtb.rdAccesses                    2755582                       # TLB accesses on read requests
system.cpu1.dtb.rdMisses                          899                       # TLB misses on read requests
system.cpu1.dtb.walker.pwrStateResidencyTicks::UNDEFINED 1742469679000                       # Cumulative time (in ticks) in various power states
system.cpu1.dtb.wrAccesses                     864634                       # TLB accesses on write requests
system.cpu1.dtb.wrMisses                           89                       # TLB misses on write requests
system.cpu1.icache.ReadReq_accesses::.cpu1.inst      7637575                       # number of ReadReq accesses(hits+misses)
system.cpu1.icache.ReadReq_accesses::total      7637575                       # number of ReadReq accesses(hits+misses)
system.cpu1.icache.ReadReq_avg_miss_latency::.cpu1.inst 87758.097581                       # average ReadReq miss latency
system.cpu1.icache.ReadReq_avg_miss_latency::total 87758.097581                       # average ReadReq miss latency
system.cpu1.icache.ReadReq_avg_mshr_miss_latency::.cpu1.inst 85758.097581                       # average ReadReq mshr miss latency
system.cpu1.icache.ReadReq_avg_mshr_miss_latency::total 85758.097581                       # average ReadReq mshr miss latency
system.cpu1.icache.ReadReq_hits::.cpu1.inst      7635136                       # number of ReadReq hits
system.cpu1.icache.ReadReq_hits::total        7635136                       # number of ReadReq hits
system.cpu1.icache.ReadReq_miss_latency::.cpu1.inst    214042000                       # number of ReadReq miss cycles
system.cpu1.icache.ReadReq_miss_latency::total    214042000                       # number of ReadReq miss cycles
system.cpu1.icache.ReadReq_miss_rate::.cpu1.inst     0.000319                       # miss rate for ReadReq accesses
system.cpu1.icache.ReadReq_miss_rate::total     0.000319                       # miss rate for ReadReq accesses
system.cpu1.icache.ReadReq_misses::.cpu1.inst         2439                       # number of ReadReq misses
system.cpu1.icache.ReadReq_misses::total         2439                       # number of ReadReq misses
system.cpu1.icache.ReadReq_mshr_miss_latency::.cpu1.inst    209164000                       # number of ReadReq MSHR miss cycles
system.cpu1.icache.ReadReq_mshr_miss_latency::total    209164000                       # number of ReadReq MSHR miss cycles
system.cpu1.icache.ReadReq_mshr_miss_rate::.cpu1.inst     0.000319                       # mshr miss rate for ReadReq accesses
system.cpu1.icache.ReadReq_mshr_miss_rate::total     0.000319                       # mshr miss rate for ReadReq accesses
system.cpu1.icache.ReadReq_mshr_misses::.cpu1.inst         2439                       # number of ReadReq MSHR misses
system.cpu1.icache.ReadReq_mshr_misses::total         2439                       # number of ReadReq MSHR misses
system.cpu1.icache.avg_blocked_cycles::no_mshrs          nan                       # average number of cycles each access was blocked
system.cpu1.icache.avg_blocked_cycles::no_targets          nan                       # average number of cycles each access was blocked
system.cpu1.icache.blocked::no_mshrs                0                       # number of cycles access was blocked
system.cpu1.icache.blocked::no_targets              0                       # number of cycles access was blocked
system.cpu1.icache.blocked_cycles::no_mshrs            0                       # number of cycles access was blocked
system.cpu1.icache.blocked_cycles::no_targets            0                       # number of cycles access was blocked
system.cpu1.icache.demand_accesses::.cpu1.inst      7637575                       # number of demand (read+write) accesses
system.cpu1.icache.demand_accesses::total      7637575                       # number of demand (read+write) accesses
system.cpu1.icache.demand_avg_miss_latency::.cpu1.inst 87758.097581                       # average overall miss latency
system.cpu1.icache.demand_avg_miss_latency::total 87758.097581                       # average overall miss latency
system.cpu1.icache.demand_avg_mshr_miss_latency::.cpu1.inst 85758.097581                       # average overall mshr miss latency
system.cpu1.icache.demand_avg_mshr_miss_latency::total 85758.097581                       # average overall mshr miss latency
system.cpu1.icache.demand_hits::.cpu1.inst      7635136                       # number of demand (read+write) hits
system.cpu1.icache.demand_hits::total         7635136                       # number of demand (read+write) hits
system.cpu1.icache.demand_miss_latency::.cpu1.inst    214042000                       # number of demand (read+write) miss cycles
system.cpu1.icache.demand_miss_latency::total    214042000                       # number of demand (read+write) miss cycles
system.cpu1.icache.demand_miss_rate::.cpu1.inst     0.000319                       # miss rate for demand accesses
system.cpu1.icache.demand_miss_rate::total     0.000319                       # miss rate for demand accesses
system.cpu1.icache.demand_misses::.cpu1.inst         2439                       # number of demand (read+write) misses
system.cpu1.icache.demand_misses::total          2439                       # number of demand (read+write) misses
system.cpu1.icache.demand_mshr_miss_latency::.cpu1.inst    209164000                       # number of demand (read+write) MSHR miss cycles
system.cpu1.icache.demand_mshr_miss_latency::total    209164000                       # number of demand (read+write) MSHR miss cycles
system.cpu1.icache.demand_mshr_miss_rate::.cpu1.inst     0.000319                       # mshr miss rate for demand accesses
system.cpu1.icache.demand_mshr_miss_rate::total     0.000319                       # mshr miss rate for demand accesses
system.cpu1.icache.demand_mshr_misses::.cpu1.inst         2439                       # number of demand (read+write) MSHR misses
system.cpu1.icache.demand_mshr_misses::total         2439                       # number of demand (read+write) MSHR misses
system.cpu1.icache.overall_accesses::.cpu1.inst      7637575                       # number of overall (read+write) accesses
system.cpu1.icache.overall_accesses::total      7637575                       # number of overall (read+write) accesses
system.cpu1.icache.overall_avg_miss_latency::.cpu1.inst 87758.097581                       # average overall miss latency
system.cpu1.icache.overall_avg_miss_latency::total 87758.097581                       # average overall miss latency
system.cpu1.icache.overall_avg_mshr_miss_latency::.cpu1.inst 85758.097581                       # average overall mshr miss latency
system.cpu1.icache.overall_avg_mshr_miss_latency::total 85758.097581                       # average overall mshr miss latency
system.cpu1.icache.overall_hits::.cpu1.inst      7635136                       # number of overall hits
system.cpu1.icache.overall_hits::total        7635136                       # number of overall hits
system.cpu1.icache.overall_miss_latency::.cpu1.inst    214042000                       # number of overall miss cycles
system.cpu1.icache.overall_miss_latency::total    214042000                       # number of overall miss cycles
system.cpu1.icache.overall_miss_rate::.cpu1.inst     0.000319                       # miss rate for overall accesses
system.cpu1.icache.overall_miss_rate::total     0.000319                       # miss rate for overall accesses
system.cpu1.icache.overall_misses::.cpu1.inst         2439                       # number of overall misses
system.cpu1.icache.overall_misses::total         2439                       # number of overall misses
system.cpu1.icache.overall_mshr_miss_latency::.cpu1.inst    209164000                       # number of overall MSHR miss cycles
system.cpu1.icache.overall_mshr_miss_latency::total    209164000                       # number of overall MSHR miss cycles
system.cpu1.icache.overall_mshr_miss_rate::.cpu1.inst     0.000319                       # mshr miss rate for overall accesses
system.cpu1.icache.overall_mshr_miss_rate::total     0.000319                       # mshr miss rate for overall accesses
system.cpu1.icache.overall_mshr_misses::.cpu1.inst         2439                       # number of overall MSHR misses
system.cpu1.icache.overall_mshr_misses::total         2439                       # number of overall MSHR misses
system.cpu1.icache.pwrStateResidencyTicks::UNDEFINED 1742469679000                       # Cumulative time (in ticks) in various power states
system.cpu1.icache.replacements                  2183                       # number of replacements
system.cpu1.icache.tags.age_task_id_blocks_1024::4          256                       # Occupied blocks per task id
system.cpu1.icache.tags.avg_refs          3131.437064                       # Average number of references to valid blocks.
system.cpu1.icache.tags.data_accesses        15277589                       # Number of data accesses
system.cpu1.icache.tags.occ_blocks::.cpu1.inst   255.983515                       # Average occupied blocks per requestor
system.cpu1.icache.tags.occ_percent::.cpu1.inst     0.999936                       # Average percentage of cache occupancy
system.cpu1.icache.tags.occ_percent::total     0.999936                       # Average percentage of cache occupancy
system.cpu1.icache.tags.occ_task_id_blocks::1024          256                       # Occupied blocks per task id
system.cpu1.icache.tags.occ_task_id_percent::1024            1                       # Percentage of cache occupancy per task id
system.cpu1.icache.tags.pwrStateResidencyTicks::UNDEFINED 1742469679000                       # Cumulative time (in ticks) in various power states
system.cpu1.icache.tags.sampled_refs             2439                       # Sample count of references to valid blocks.
system.cpu1.icache.tags.tag_accesses         15277589                       # Number of tag accesses
system.cpu1.icache.tags.tagsinuse          255.983515                       # Cycle average of tags in use
system.cpu1.icache.tags.total_refs            7637575                       # Total number of references to valid blocks.
system.cpu1.icache.tags.warmup_cycle           114000                       # Cycle when the warmup percentage was hit.
system.cpu1.idle_fraction                    0.984630                       # Percentage of idle cycles
system.cpu1.interrupts.clk_domain.clock         16000                       # Clock period in ticks
system.cpu1.interrupts.pwrStateResidencyTicks::UNDEFINED 1742469679000                       # Cumulative time (in ticks) in various power states
system.cpu1.itb.rdAccesses                          0                       # TLB accesses on read requests
system.cpu1.itb.rdMisses                            0                       # TLB misses on read requests
system.cpu1.itb.walker.pwrStateResidencyTicks::UNDEFINED 1742469679000                       # Cumulative time (in ticks) in various power states
system.cpu1.itb.wrAccesses                    7637575                       # TLB accesses on write requests
system.cpu1.itb.wrMisses                          286                       # TLB misses on write requests
system.cpu1.not_idle_fraction                0.015370                       # Percentage of non-idle cycles
system.cpu1.numCycles                        26781516                       # number of cpu cycles simulated
system.cpu1.numWorkItemsCompleted                   0                       # number of work items this cpu completed
system.cpu1.numWorkItemsStarted                     0                       # number of work items this cpu started
system.cpu1.num_busy_cycles              411628.166563                       # Number of busy cycles
system.cpu1.num_cc_register_reads             4749339                       # number of times the CC registers were read
system.cpu1.num_cc_register_writes            3541090                       # number of times the CC registers were written
system.cpu1.num_conditional_control_insts       795867                       # number of instructions that are conditional controls
system.cpu1.num_fp_alu_accesses                 73417                       # Number of float alu accesses
system.cpu1.num_fp_insts                        73417                       # number of float instructions
system.cpu1.num_fp_register_reads              100729                       # number of times the floating registers were read
system.cpu1.num_fp_register_writes              53576                       # number of times the floating registers were written
system.cpu1.num_func_calls                      18274                       # number of times a function call or return occured
system.cpu1.num_idle_cycles              26369887.833437                       # Number of idle cycles
system.cpu1.num_int_alu_accesses             10989573                       # Number of integer alu accesses
system.cpu1.num_int_insts                    10989573                       # number of integer instructions
system.cpu1.num_int_register_reads           22870723                       # number of times the integer registers were read
system.cpu1.num_int_register_writes           8959437                       # number of times the integer registers were written
system.cpu1.num_load_insts                    2755555                       # Number of load instructions
system.cpu1.num_mem_refs                      3620179                       # number of memory refs
system.cpu1.num_store_insts                    864624                       # Number of store instructions
system.cpu1.num_vec_alu_accesses                    0                       # Number of vector alu accesses
system.cpu1.num_vec_insts                           0                       # number of vector instructions
system.cpu1.num_vec_register_reads                  0                       # number of times the vector registers were read
system.cpu1.num_vec_register_writes                 0                       # number of times the vector registers were written
system.cpu1.op_class::No_OpClass                19405      0.18%      0.18% # Class of executed instruction
system.cpu1.op_class::IntAlu                  7326923     66.35%     66.53% # Class of executed instruction
system.cpu1.op_class::IntMult                     415      0.00%     66.53% # Class of executed instruction
system.cpu1.op_class::IntDiv                    34769      0.31%     66.84% # Class of executed instruction
system.cpu1.op_class::FloatAdd                   2884      0.03%     66.87% # Class of executed instruction
system.cpu1.op_class::FloatCmp                      0      0.00%     66.87% # Class of executed instruction
system.cpu1.op_class::FloatCvt                   1344      0.01%     66.88% # Class of executed instruction
system.cpu1.op_class::FloatMult                     0      0.00%     66.88% # Class of executed instruction
system.cpu1.op_class::FloatMultAcc                  0      0.00%     66.88% # Class of executed instruction
system.cpu1.op_class::FloatDiv                      0      0.00%     66.88% # Class of executed instruction
system.cpu1.op_class::FloatMisc                     0      0.00%     66.88% # Class of executed instruction
system.cpu1.op_class::FloatSqrt                     0      0.00%     66.88% # Class of executed instruction
system.cpu1.op_class::SimdAdd                    6146      0.06%     66.94% # Class of executed instruction
system.cpu1.op_class::SimdAddAcc                    0      0.00%     66.94% # Class of executed instruction
system.cpu1.op_class::SimdAlu                   11116      0.10%     67.04% # Class of executed instruction
system.cpu1.op_class::SimdCmp                       0      0.00%     67.04% # Class of executed instruction
system.cpu1.op_class::SimdCvt                   12010      0.11%     67.15% # Class of executed instruction
system.cpu1.op_class::SimdMisc                   6520      0.06%     67.21% # Class of executed instruction
system.cpu1.op_class::SimdMult                      0      0.00%     67.21% # Class of executed instruction
system.cpu1.op_class::SimdMultAcc                   0      0.00%     67.21% # Class of executed instruction
system.cpu1.op_class::SimdShift                  1018      0.01%     67.22% # Class of executed instruction
system.cpu1.op_class::SimdShiftAcc                  0      0.00%     67.22% # Class of executed instruction
system.cpu1.op_class::SimdDiv                       0      0.00%     67.22% # Class of executed instruction
system.cpu1.op_class::SimdSqrt                      0      0.00%     67.22% # Class of executed instruction
system.cpu1.op_class::SimdFloatAdd                  0      0.00%     67.22% # Class of executed instruction
system.cpu1.op_class::SimdFloatAlu                  0      0.00%     67.22% # Class of executed instruction
system.cpu1.op_class::SimdFloatCmp                  0      0.00%     67.22% # Class of executed instruction
system.cpu1.op_class::SimdFloatCvt                  0      0.00%     67.22% # Class of executed instruction
system.cpu1.op_class::SimdFloatDiv                  0      0.00%     67.22% # Class of executed instruction
system.cpu1.op_class::SimdFloatMisc                 0      0.00%     67.22% # Class of executed instruction
system.cpu1.op_class::SimdFloatMult                 0      0.00%     67.22% # Class of executed instruction
system.cpu1.op_class::SimdFloatMultAcc              0      0.00%     67.22% # Class of executed instruction
system.cpu1.op_class::SimdFloatSqrt                 0      0.00%     67.22% # Class of executed instruction
system.cpu1.op_class::SimdReduceAdd                 0      0.00%     67.22% # Class of executed instruction
system.cpu1.op_class::SimdReduceAlu                 0      0.00%     67.22% # Class of executed instruction
system.cpu1.op_class::SimdReduceCmp                 0      0.00%     67.22% # Class of executed instruction
system.cpu1.op_class::SimdFloatReduceAdd            0      0.00%     67.22% # Class of executed instruction
system.cpu1.op_class::SimdFloatReduceCmp            0      0.00%     67.22% # Class of executed instruction
system.cpu1.op_class::SimdAes                       0      0.00%     67.22% # Class of executed instruction
system.cpu1.op_class::SimdAesMix                    0      0.00%     67.22% # Class of executed instruction
system.cpu1.op_class::SimdSha1Hash                  0      0.00%     67.22% # Class of executed instruction
system.cpu1.op_class::SimdSha1Hash2                 0      0.00%     67.22% # Class of executed instruction
system.cpu1.op_class::SimdSha256Hash                0      0.00%     67.22% # Class of executed instruction
system.cpu1.op_class::SimdSha256Hash2               0      0.00%     67.22% # Class of executed instruction
system.cpu1.op_class::SimdShaSigma2                 0      0.00%     67.22% # Class of executed instruction
system.cpu1.op_class::SimdShaSigma3                 0      0.00%     67.22% # Class of executed instruction
system.cpu1.op_class::SimdPredAlu                   0      0.00%     67.22% # Class of executed instruction
system.cpu1.op_class::MemRead                 2736247     24.78%     92.00% # Class of executed instruction
system.cpu1.op_class::MemWrite                 852271      7.72%     99.71% # Class of executed instruction
system.cpu1.op_class::FloatMemRead              19308      0.17%     99.89% # Class of executed instruction
system.cpu1.op_class::FloatMemWrite             12353      0.11%    100.00% # Class of executed instruction
system.cpu1.op_class::IprAccess                     0      0.00%    100.00% # Class of executed instruction
system.cpu1.op_class::InstPrefetch                  0      0.00%    100.00% # Class of executed instruction
system.cpu1.op_class::total                  11042729                       # Class of executed instruction
system.cpu1.pwrStateResidencyTicks::ON   1742469679000                       # Cumulative time (in ticks) in various power states
system.cpu1.workload.numSyscalls                   59                       # Number of system calls
system.cpu2.Branches                         21306387                       # Number of branches fetched
system.cpu2.committedInsts                  180265021                       # Number of instructions committed
system.cpu2.committedOps                    297081831                       # Number of ops (including micro ops) committed
system.cpu2.dcache.ReadReq_accesses::.cpu2.data     52908244                       # number of ReadReq accesses(hits+misses)
system.cpu2.dcache.ReadReq_accesses::total     52908244                       # number of ReadReq accesses(hits+misses)
system.cpu2.dcache.ReadReq_avg_miss_latency::.cpu2.data 109380.637780                       # average ReadReq miss latency
system.cpu2.dcache.ReadReq_avg_miss_latency::total 109380.637780                       # average ReadReq miss latency
system.cpu2.dcache.ReadReq_avg_mshr_miss_latency::.cpu2.data 107380.637780                       # average ReadReq mshr miss latency
system.cpu2.dcache.ReadReq_avg_mshr_miss_latency::total 107380.637780                       # average ReadReq mshr miss latency
system.cpu2.dcache.ReadReq_hits::.cpu2.data     42410605                       # number of ReadReq hits
system.cpu2.dcache.ReadReq_hits::total       42410605                       # number of ReadReq hits
system.cpu2.dcache.ReadReq_miss_latency::.cpu2.data 1148238449000                       # number of ReadReq miss cycles
system.cpu2.dcache.ReadReq_miss_latency::total 1148238449000                       # number of ReadReq miss cycles
system.cpu2.dcache.ReadReq_miss_rate::.cpu2.data     0.198412                       # miss rate for ReadReq accesses
system.cpu2.dcache.ReadReq_miss_rate::total     0.198412                       # miss rate for ReadReq accesses
system.cpu2.dcache.ReadReq_misses::.cpu2.data     10497639                       # number of ReadReq misses
system.cpu2.dcache.ReadReq_misses::total     10497639                       # number of ReadReq misses
system.cpu2.dcache.ReadReq_mshr_miss_latency::.cpu2.data 1127243171000                       # number of ReadReq MSHR miss cycles
system.cpu2.dcache.ReadReq_mshr_miss_latency::total 1127243171000                       # number of ReadReq MSHR miss cycles
system.cpu2.dcache.ReadReq_mshr_miss_rate::.cpu2.data     0.198412                       # mshr miss rate for ReadReq accesses
system.cpu2.dcache.ReadReq_mshr_miss_rate::total     0.198412                       # mshr miss rate for ReadReq accesses
system.cpu2.dcache.ReadReq_mshr_misses::.cpu2.data     10497639                       # number of ReadReq MSHR misses
system.cpu2.dcache.ReadReq_mshr_misses::total     10497639                       # number of ReadReq MSHR misses
system.cpu2.dcache.WriteReq_accesses::.cpu2.data     21137204                       # number of WriteReq accesses(hits+misses)
system.cpu2.dcache.WriteReq_accesses::total     21137204                       # number of WriteReq accesses(hits+misses)
system.cpu2.dcache.WriteReq_avg_miss_latency::.cpu2.data 99751.079137                       # average WriteReq miss latency
system.cpu2.dcache.WriteReq_avg_miss_latency::total 99751.079137                       # average WriteReq miss latency
system.cpu2.dcache.WriteReq_avg_mshr_miss_latency::.cpu2.data 97751.079137                       # average WriteReq mshr miss latency
system.cpu2.dcache.WriteReq_avg_mshr_miss_latency::total 97751.079137                       # average WriteReq mshr miss latency
system.cpu2.dcache.WriteReq_hits::.cpu2.data     21135119                       # number of WriteReq hits
system.cpu2.dcache.WriteReq_hits::total      21135119                       # number of WriteReq hits
system.cpu2.dcache.WriteReq_miss_latency::.cpu2.data    207981000                       # number of WriteReq miss cycles
system.cpu2.dcache.WriteReq_miss_latency::total    207981000                       # number of WriteReq miss cycles
system.cpu2.dcache.WriteReq_miss_rate::.cpu2.data     0.000099                       # miss rate for WriteReq accesses
system.cpu2.dcache.WriteReq_miss_rate::total     0.000099                       # miss rate for WriteReq accesses
system.cpu2.dcache.WriteReq_misses::.cpu2.data         2085                       # number of WriteReq misses
system.cpu2.dcache.WriteReq_misses::total         2085                       # number of WriteReq misses
system.cpu2.dcache.WriteReq_mshr_miss_latency::.cpu2.data    203811000                       # number of WriteReq MSHR miss cycles
system.cpu2.dcache.WriteReq_mshr_miss_latency::total    203811000                       # number of WriteReq MSHR miss cycles
system.cpu2.dcache.WriteReq_mshr_miss_rate::.cpu2.data     0.000099                       # mshr miss rate for WriteReq accesses
system.cpu2.dcache.WriteReq_mshr_miss_rate::total     0.000099                       # mshr miss rate for WriteReq accesses
system.cpu2.dcache.WriteReq_mshr_misses::.cpu2.data         2085                       # number of WriteReq MSHR misses
system.cpu2.dcache.WriteReq_mshr_misses::total         2085                       # number of WriteReq MSHR misses
system.cpu2.dcache.avg_blocked_cycles::no_mshrs          nan                       # average number of cycles each access was blocked
system.cpu2.dcache.avg_blocked_cycles::no_targets          nan                       # average number of cycles each access was blocked
system.cpu2.dcache.blocked::no_mshrs                0                       # number of cycles access was blocked
system.cpu2.dcache.blocked::no_targets              0                       # number of cycles access was blocked
system.cpu2.dcache.blocked_cycles::no_mshrs            0                       # number of cycles access was blocked
system.cpu2.dcache.blocked_cycles::no_targets            0                       # number of cycles access was blocked
system.cpu2.dcache.demand_accesses::.cpu2.data     74045448                       # number of demand (read+write) accesses
system.cpu2.dcache.demand_accesses::total     74045448                       # number of demand (read+write) accesses
system.cpu2.dcache.demand_avg_miss_latency::.cpu2.data 109378.725574                       # average overall miss latency
system.cpu2.dcache.demand_avg_miss_latency::total 109378.725574                       # average overall miss latency
system.cpu2.dcache.demand_avg_mshr_miss_latency::.cpu2.data 107378.725574                       # average overall mshr miss latency
system.cpu2.dcache.demand_avg_mshr_miss_latency::total 107378.725574                       # average overall mshr miss latency
system.cpu2.dcache.demand_hits::.cpu2.data     63545724                       # number of demand (read+write) hits
system.cpu2.dcache.demand_hits::total        63545724                       # number of demand (read+write) hits
system.cpu2.dcache.demand_miss_latency::.cpu2.data 1148446430000                       # number of demand (read+write) miss cycles
system.cpu2.dcache.demand_miss_latency::total 1148446430000                       # number of demand (read+write) miss cycles
system.cpu2.dcache.demand_miss_rate::.cpu2.data     0.141801                       # miss rate for demand accesses
system.cpu2.dcache.demand_miss_rate::total     0.141801                       # miss rate for demand accesses
system.cpu2.dcache.demand_misses::.cpu2.data     10499724                       # number of demand (read+write) misses
system.cpu2.dcache.demand_misses::total      10499724                       # number of demand (read+write) misses
system.cpu2.dcache.demand_mshr_miss_latency::.cpu2.data 1127446982000                       # number of demand (read+write) MSHR miss cycles
system.cpu2.dcache.demand_mshr_miss_latency::total 1127446982000                       # number of demand (read+write) MSHR miss cycles
system.cpu2.dcache.demand_mshr_miss_rate::.cpu2.data     0.141801                       # mshr miss rate for demand accesses
system.cpu2.dcache.demand_mshr_miss_rate::total     0.141801                       # mshr miss rate for demand accesses
system.cpu2.dcache.demand_mshr_misses::.cpu2.data     10499724                       # number of demand (read+write) MSHR misses
system.cpu2.dcache.demand_mshr_misses::total     10499724                       # number of demand (read+write) MSHR misses
system.cpu2.dcache.overall_accesses::.cpu2.data     74045448                       # number of overall (read+write) accesses
system.cpu2.dcache.overall_accesses::total     74045448                       # number of overall (read+write) accesses
system.cpu2.dcache.overall_avg_miss_latency::.cpu2.data 109378.725574                       # average overall miss latency
system.cpu2.dcache.overall_avg_miss_latency::total 109378.725574                       # average overall miss latency
system.cpu2.dcache.overall_avg_mshr_miss_latency::.cpu2.data 107378.725574                       # average overall mshr miss latency
system.cpu2.dcache.overall_avg_mshr_miss_latency::total 107378.725574                       # average overall mshr miss latency
system.cpu2.dcache.overall_hits::.cpu2.data     63545724                       # number of overall hits
system.cpu2.dcache.overall_hits::total       63545724                       # number of overall hits
system.cpu2.dcache.overall_miss_latency::.cpu2.data 1148446430000                       # number of overall miss cycles
system.cpu2.dcache.overall_miss_latency::total 1148446430000                       # number of overall miss cycles
system.cpu2.dcache.overall_miss_rate::.cpu2.data     0.141801                       # miss rate for overall accesses
system.cpu2.dcache.overall_miss_rate::total     0.141801                       # miss rate for overall accesses
system.cpu2.dcache.overall_misses::.cpu2.data     10499724                       # number of overall misses
system.cpu2.dcache.overall_misses::total     10499724                       # number of overall misses
system.cpu2.dcache.overall_mshr_miss_latency::.cpu2.data 1127446982000                       # number of overall MSHR miss cycles
system.cpu2.dcache.overall_mshr_miss_latency::total 1127446982000                       # number of overall MSHR miss cycles
system.cpu2.dcache.overall_mshr_miss_rate::.cpu2.data     0.141801                       # mshr miss rate for overall accesses
system.cpu2.dcache.overall_mshr_miss_rate::total     0.141801                       # mshr miss rate for overall accesses
system.cpu2.dcache.overall_mshr_misses::.cpu2.data     10499724                       # number of overall MSHR misses
system.cpu2.dcache.overall_mshr_misses::total     10499724                       # number of overall MSHR misses
system.cpu2.dcache.pwrStateResidencyTicks::UNDEFINED 1742469679000                       # Cumulative time (in ticks) in various power states
system.cpu2.dcache.replacements              10498700                       # number of replacements
system.cpu2.dcache.tags.age_task_id_blocks_1024::1          358                       # Occupied blocks per task id
system.cpu2.dcache.tags.age_task_id_blocks_1024::2          665                       # Occupied blocks per task id
system.cpu2.dcache.tags.age_task_id_blocks_1024::4            1                       # Occupied blocks per task id
system.cpu2.dcache.tags.avg_refs             7.052133                       # Average number of references to valid blocks.
system.cpu2.dcache.tags.data_accesses       158590620                       # Number of data accesses
system.cpu2.dcache.tags.occ_blocks::.cpu2.data  1023.874842                       # Average occupied blocks per requestor
system.cpu2.dcache.tags.occ_percent::.cpu2.data     0.999878                       # Average percentage of cache occupancy
system.cpu2.dcache.tags.occ_percent::total     0.999878                       # Average percentage of cache occupancy
system.cpu2.dcache.tags.occ_task_id_blocks::1024         1024                       # Occupied blocks per task id
system.cpu2.dcache.tags.occ_task_id_percent::1024            1                       # Percentage of cache occupancy per task id
system.cpu2.dcache.tags.pwrStateResidencyTicks::UNDEFINED 1742469679000                       # Cumulative time (in ticks) in various power states
system.cpu2.dcache.tags.sampled_refs         10499724                       # Sample count of references to valid blocks.
system.cpu2.dcache.tags.tag_accesses        158590620                       # Number of tag accesses
[...]
system.mem_ctrl.wrPerTurnAround::samples      1274086                       # Writes before turning the bus around for reads
system.mem_ctrl.wrPerTurnAround::mean       16.490055                       # Writes before turning the bus around for reads
system.mem_ctrl.wrPerTurnAround::gmean      16.468953                       # Writes before turning the bus around for reads
system.mem_ctrl.wrPerTurnAround::stdev       0.853948                       # Writes before turning the bus around for reads
system.mem_ctrl.wrPerTurnAround::16            928398     72.87%     72.87% # Writes before turning the bus around for reads
system.mem_ctrl.wrPerTurnAround::17             87075      6.83%     79.70% # Writes before turning the bus around for reads
system.mem_ctrl.wrPerTurnAround::18            244752     19.21%     98.91% # Writes before turning the bus around for reads
system.mem_ctrl.wrPerTurnAround::19              7928      0.62%     99.53% # Writes before turning the bus around for reads
system.mem_ctrl.wrPerTurnAround::20              5729      0.45%     99.98% # Writes before turning the bus around for reads
system.mem_ctrl.wrPerTurnAround::21               158      0.01%    100.00% # Writes before turning the bus around for reads
system.mem_ctrl.wrPerTurnAround::22                26      0.00%    100.00% # Writes before turning the bus around for reads
system.mem_ctrl.wrPerTurnAround::23                15      0.00%    100.00% # Writes before turning the bus around for reads
system.mem_ctrl.wrPerTurnAround::24                 3      0.00%    100.00% # Writes before turning the bus around for reads
system.mem_ctrl.wrPerTurnAround::25                 2      0.00%    100.00% # Writes before turning the bus around for reads
system.mem_ctrl.wrPerTurnAround::total        1274086                       # Writes before turning the bus around for reads
system.mem_ctrl.wrQLenPdf::0                        1                       # What write queue length does an incoming req see
system.mem_ctrl.wrQLenPdf::1                        1                       # What write queue length does an incoming req see
system.mem_ctrl.wrQLenPdf::2                        1                       # What write queue length does an incoming req see
system.mem_ctrl.wrQLenPdf::3                        1                       # What write queue length does an incoming req see
system.mem_ctrl.wrQLenPdf::4                        1                       # What write queue length does an incoming req see
system.mem_ctrl.wrQLenPdf::5                        1                       # What write queue length does an incoming req see
system.mem_ctrl.wrQLenPdf::6                        1                       # What write queue length does an incoming req see
system.mem_ctrl.wrQLenPdf::7                        1                       # What write queue length does an incoming req see
system.mem_ctrl.wrQLenPdf::8                        1                       # What write queue length does an incoming req see
system.mem_ctrl.wrQLenPdf::9                        1                       # What write queue length does an incoming req see
system.mem_ctrl.wrQLenPdf::10                       1                       # What write queue length does an incoming req see
system.mem_ctrl.wrQLenPdf::11                       1                       # What write queue length does an incoming req see
system.mem_ctrl.wrQLenPdf::12                       1                       # What write queue length does an incoming req see
system.mem_ctrl.wrQLenPdf::13                       1                       # What write queue length does an incoming req see
system.mem_ctrl.wrQLenPdf::14                       1                       # What write queue length does an incoming req see
system.mem_ctrl.wrQLenPdf::15                  255262                       # What write queue length does an incoming req see
system.mem_ctrl.wrQLenPdf::16                  296079                       # What write queue length does an incoming req see
system.mem_ctrl.wrQLenPdf::17                 1273206                       # What write queue length does an incoming req see
system.mem_ctrl.wrQLenPdf::18                 1274440                       # What write queue length does an incoming req see
system.mem_ctrl.wrQLenPdf::19                 1277614                       # What write queue length does an incoming req see
system.mem_ctrl.wrQLenPdf::20                 1274642                       # What write queue length does an incoming req see
system.mem_ctrl.wrQLenPdf::21                 1274836                       # What write queue length does an incoming req see
system.mem_ctrl.wrQLenPdf::22                 1285702                       # What write queue length does an incoming req see
system.mem_ctrl.wrQLenPdf::23                 1274755                       # What write queue length does an incoming req see
system.mem_ctrl.wrQLenPdf::24                 1274839                       # What write queue length does an incoming req see
system.mem_ctrl.wrQLenPdf::25                 1285281                       # What write queue length does an incoming req see
system.mem_ctrl.wrQLenPdf::26                 1275015                       # What write queue length does an incoming req see
system.mem_ctrl.wrQLenPdf::27                 1274897                       # What write queue length does an incoming req see
system.mem_ctrl.wrQLenPdf::28                 1280544                       # What write queue length does an incoming req see
system.mem_ctrl.wrQLenPdf::29                 1274912                       # What write queue length does an incoming req see
system.mem_ctrl.wrQLenPdf::30                 1288164                       # What write queue length does an incoming req see
system.mem_ctrl.wrQLenPdf::31                 1295395                       # What write queue length does an incoming req see
system.mem_ctrl.wrQLenPdf::32                 1274091                       # What write queue length does an incoming req see
system.mem_ctrl.wrQLenPdf::33                      64                       # What write queue length does an incoming req see
system.mem_ctrl.wrQLenPdf::34                      16                       # What write queue length does an incoming req see
system.mem_ctrl.wrQLenPdf::35                       2                       # What write queue length does an incoming req see
system.mem_ctrl.wrQLenPdf::36                       1                       # What write queue length does an incoming req see
system.mem_ctrl.wrQLenPdf::37                       0                       # What write queue length does an incoming req see
system.mem_ctrl.wrQLenPdf::38                       0                       # What write queue length does an incoming req see
system.mem_ctrl.wrQLenPdf::39                       0                       # What write queue length does an incoming req see
system.mem_ctrl.wrQLenPdf::40                       0                       # What write queue length does an incoming req see
system.mem_ctrl.wrQLenPdf::41                       0                       # What write queue length does an incoming req see
system.mem_ctrl.wrQLenPdf::42                       0                       # What write queue length does an incoming req see
system.mem_ctrl.wrQLenPdf::43                       0                       # What write queue length does an incoming req see
system.mem_ctrl.wrQLenPdf::44                       0                       # What write queue length does an incoming req see
system.mem_ctrl.wrQLenPdf::45                       0                       # What write queue length does an incoming req see
system.mem_ctrl.wrQLenPdf::46                       0                       # What write queue length does an incoming req see
system.mem_ctrl.wrQLenPdf::47                       0                       # What write queue length does an incoming req see
system.mem_ctrl.wrQLenPdf::48                       0                       # What write queue length does an incoming req see
system.mem_ctrl.wrQLenPdf::49                       0                       # What write queue length does an incoming req see
system.mem_ctrl.wrQLenPdf::50                       0                       # What write queue length does an incoming req see
system.mem_ctrl.wrQLenPdf::51                       0                       # What write queue length does an incoming req see
system.mem_ctrl.wrQLenPdf::52                       0                       # What write queue length does an incoming req see
system.mem_ctrl.wrQLenPdf::53                       0                       # What write queue length does an incoming req see
system.mem_ctrl.wrQLenPdf::54                       0                       # What write queue length does an incoming req see
system.mem_ctrl.wrQLenPdf::55                       0                       # What write queue length does an incoming req see
system.mem_ctrl.wrQLenPdf::56                       0                       # What write queue length does an incoming req see
system.mem_ctrl.wrQLenPdf::57                       0                       # What write queue length does an incoming req see
system.mem_ctrl.wrQLenPdf::58                       0                       # What write queue length does an incoming req see
system.mem_ctrl.wrQLenPdf::59                       0                       # What write queue length does an incoming req see
system.mem_ctrl.wrQLenPdf::60                       0                       # What write queue length does an incoming req see
system.mem_ctrl.wrQLenPdf::61                       0                       # What write queue length does an incoming req see
system.mem_ctrl.wrQLenPdf::62                       0                       # What write queue length does an incoming req see
system.mem_ctrl.wrQLenPdf::63                       0                       # What write queue length does an incoming req see
system.mem_ctrl.writeBursts                  21009772                       # Number of DRAM write bursts, including those merged in the write queue
system.mem_ctrl.writePktSize::0                     0                       # Write request sizes (log2)
system.mem_ctrl.writePktSize::1                     0                       # Write request sizes (log2)
system.mem_ctrl.writePktSize::2                     0                       # Write request sizes (log2)
system.mem_ctrl.writePktSize::3                     0                       # Write request sizes (log2)
system.mem_ctrl.writePktSize::4                     0                       # Write request sizes (log2)
system.mem_ctrl.writePktSize::5                     0                       # Write request sizes (log2)
system.mem_ctrl.writePktSize::6              21009772                       # Write request sizes (log2)
system.mem_ctrl.writeReqs                    21009772                       # Number of write requests accepted
system.mem_ctrl.writeRowHitRate                 91.42                       # Row buffer hit rate for writes
system.mem_ctrl.writeRowHits                 19208037                       # Number of row buffer hits during writes
system.mem_ctrl_0.actBackEnergy          735929270880                       # Energy for active background per rank (pJ)
system.mem_ctrl_0.actEnergy               14726821200                       # Energy for activate commands per rank (pJ)
system.mem_ctrl_0.actPowerDownEnergy                0                       # Energy for active power-down per rank (pJ)
system.mem_ctrl_0.averagePower             617.197251                       # Core power per rank (mW)
system.mem_ctrl_0.memoryStateTime::IDLE  109552269590                       # Time in different power states
system.mem_ctrl_0.memoryStateTime::REF    58184880000                       # Time in different power states
system.mem_ctrl_0.memoryStateTime::SREF             0                       # Time in different power states
system.mem_ctrl_0.memoryStateTime::PRE_PDN            0                       # Time in different power states
system.mem_ctrl_0.memoryStateTime::ACT   1574732529410                       # Time in different power states
system.mem_ctrl_0.memoryStateTime::ACT_PDN            0                       # Time in different power states
system.mem_ctrl_0.preBackEnergy           49378444800                       # Energy for precharge background per rank (pJ)
system.mem_ctrl_0.preEnergy                7827487305                       # Energy for precharge commands per rank (pJ)
system.mem_ctrl_0.prePowerDownEnergy                0                       # Energy for precharge power-down per rank (pJ)
system.mem_ctrl_0.readEnergy              75201828660                       # Energy for read commands per rank (pJ)
system.mem_ctrl_0.refreshEnergy          137549056320.000031                       # Energy for refresh commands per rank (pJ)
system.mem_ctrl_0.selfRefreshEnergy                 0                       # Energy for self refresh per rank (pJ)
system.mem_ctrl_0.totalEnergy            1075447495365                       # Total energy per rank (pJ)
system.mem_ctrl_0.totalIdleTime                     0                       # Total Idle time Per DRAM Rank
system.mem_ctrl_0.writeEnergy             54834586200                       # Energy for write commands per rank (pJ)
system.mem_ctrl_1.actBackEnergy          732660508980                       # Energy for active background per rank (pJ)
system.mem_ctrl_1.actEnergy               14506666440                       # Energy for activate commands per rank (pJ)
system.mem_ctrl_1.actPowerDownEnergy                0                       # Energy for active power-down per rank (pJ)
system.mem_ctrl_1.averagePower             616.712984                       # Core power per rank (mW)
system.mem_ctrl_1.memoryStateTime::IDLE  116764990111                       # Time in different power states
system.mem_ctrl_1.memoryStateTime::REF    58184880000                       # Time in different power states
system.mem_ctrl_1.memoryStateTime::SREF             0                       # Time in different power states
system.mem_ctrl_1.memoryStateTime::PRE_PDN            0                       # Time in different power states
system.mem_ctrl_1.memoryStateTime::ACT   1567519808889                       # Time in different power states
system.mem_ctrl_1.memoryStateTime::ACT_PDN            0                       # Time in different power states
system.mem_ctrl_1.preBackEnergy           52131086400                       # Energy for precharge background per rank (pJ)
system.mem_ctrl_1.preEnergy                7710476070                       # Energy for precharge commands per rank (pJ)
system.mem_ctrl_1.prePowerDownEnergy                0                       # Energy for precharge power-down per rank (pJ)
system.mem_ctrl_1.readEnergy              75209582700                       # Energy for read commands per rank (pJ)
system.mem_ctrl_1.refreshEnergy          137549056320.000031                       # Energy for refresh commands per rank (pJ)
system.mem_ctrl_1.selfRefreshEnergy                 0                       # Energy for self refresh per rank (pJ)
system.mem_ctrl_1.totalEnergy            1074603675270                       # Total energy per rank (pJ)
system.mem_ctrl_1.totalIdleTime                     0                       # Total Idle time Per DRAM Rank
system.mem_ctrl_1.writeEnergy             54836298360                       # Energy for write commands per rank (pJ)
system.membus.pkt_count_system.l2cache.mem_side::system.mem_ctrl.port     63191498                       # Packet count per connected master and slave (bytes)
system.membus.pkt_count_system.l2cache.mem_side::total     63191498                       # Packet count per connected master and slave (bytes)
system.membus.pkt_count::total               63191498                       # Packet count per connected master and slave (bytes)
system.membus.pkt_size_system.l2cache.mem_side::system.mem_ctrl.port   2692865600                       # Cumulative packet size per connected master and slave (bytes)
system.membus.pkt_size_system.l2cache.mem_side::total   2692865600                       # Cumulative packet size per connected master and slave (bytes)
system.membus.pkt_size::total              2692865600                       # Cumulative packet size per connected master and slave (bytes)
system.membus.pwrStateResidencyTicks::UNDEFINED 1742469679000                       # Cumulative time (in ticks) in various power states
system.membus.reqLayer8.occupancy        146711568197                       # Layer occupancy (ticks)
system.membus.reqLayer8.utilization               8.4                       # Layer utilization (%)
system.membus.respLayer0.occupancy       111319017026                       # Layer occupancy (ticks)
system.membus.respLayer0.utilization              6.4                       # Layer utilization (%)
system.membus.snoopTraffic                          0                       # Total snoop traffic (bytes)
system.membus.snoop_fanout::samples          21066253                       # Request fanout histogram
system.membus.snoop_fanout::mean                    0                       # Request fanout histogram
system.membus.snoop_fanout::stdev                   0                       # Request fanout histogram
system.membus.snoop_fanout::underflows              0      0.00%      0.00% # Request fanout histogram
system.membus.snoop_fanout::0                21066253    100.00%    100.00% # Request fanout histogram
system.membus.snoop_fanout::1                       0      0.00%    100.00% # Request fanout histogram
system.membus.snoop_fanout::overflows               0      0.00%    100.00% # Request fanout histogram
system.membus.snoop_fanout::min_value               0                       # Request fanout histogram
system.membus.snoop_fanout::max_value               0                       # Request fanout histogram
system.membus.snoop_fanout::total            21066253                       # Request fanout histogram
system.membus.snoop_filter.hit_multi_requests            0                       # Number of requests hitting in the snoop filter with multiple (>1) holders of the requested data.
system.membus.snoop_filter.hit_multi_snoops            0                       # Number of snoops hitting in the snoop filter with multiple (>1) holders of the requested data.
system.membus.snoop_filter.hit_single_requests     21058992                       # Number of requests hitting in the snoop filter with a single holder of the requested data.
system.membus.snoop_filter.hit_single_snoops            0                       # Number of snoops hitting in the snoop filter with a single holder of the requested data.
system.membus.snoop_filter.tot_requests      42125245                       # Total number of requests made to the snoop filter.
system.membus.snoop_filter.tot_snoops               0                       # Total number of snoops made to the snoop filter.
system.membus.snoops                                0                       # Total snoops (count)
system.membus.trans_dist::ReadResp           21025477                       # Transaction distribution
system.membus.trans_dist::WritebackDirty     21009772                       # Transaction distribution
system.membus.trans_dist::CleanEvict            49220                       # Transaction distribution
system.membus.trans_dist::ReadExReq             40776                       # Transaction distribution
system.membus.trans_dist::ReadExResp            40776                       # Transaction distribution
system.membus.trans_dist::ReadSharedReq      21025477                       # Transaction distribution

---------- End Simulation Statistics   ----------
