
---------- Begin Simulation Statistics ----------
final_tick                               1721170568000                       # Number of ticks from beginning of simulation (restored from checkpoints and never reset)
host_inst_rate                                 290083                       # Simulator instruction rate (inst/s)
host_mem_usage                                 887560                       # Number of bytes of host memory used
host_op_rate                                   483340                       # Simulator op (including micro ops) rate (op/s)
host_seconds                                   683.18                       # Real time elapsed on the host
host_tick_rate                             2519336181                       # Simulator tick rate (ticks/s)
sim_freq                                 1000000000000                       # Frequency of simulated ticks
sim_insts                                   198179974                       # Number of instructions simulated
sim_ops                                     330210018                       # Number of ops (including micro ops) simulated
sim_seconds                                  1.721171                       # Number of seconds simulated
sim_ticks                                1721170568000                       # Number of ticks simulated
system.clk_domain.clock                          1000                       # Clock period in ticks
system.clk_domain.voltage_domain.voltage            1                       # Voltage in Volts
system.cpu0.Branches                          1225834                       # Number of branches fetched
system.cpu0.committedInsts                    5971651                       # Number of instructions committed
system.cpu0.committedOps                     11042729                       # Number of ops (including micro ops) committed
system.cpu0.dcache.ReadReq_accesses::.cpu0.data      2755582                       # number of ReadReq accesses(hits+misses)
system.cpu0.dcache.ReadReq_accesses::total      2755582                       # number of ReadReq accesses(hits+misses)
system.cpu0.dcache.ReadReq_avg_miss_latency::.cpu0.data 111260.656468                       # average ReadReq miss latency
system.cpu0.dcache.ReadReq_avg_miss_latency::total 111260.656468                       # average ReadReq miss latency
system.cpu0.dcache.ReadReq_avg_mshr_miss_latency::.cpu0.data 109260.656468                       # average ReadReq mshr miss latency
system.cpu0.dcache.ReadReq_avg_mshr_miss_latency::total 109260.656468                       # average ReadReq mshr miss latency
system.cpu0.dcache.ReadReq_hits::.cpu0.data      2742116                       # number of ReadReq hits
system.cpu0.dcache.ReadReq_hits::total        2742116                       # number of ReadReq hits
system.cpu0.dcache.ReadReq_miss_latency::.cpu0.data   1498236000                       # number of ReadReq miss cycles
system.cpu0.dcache.ReadReq_miss_latency::total   1498236000                       # number of ReadReq miss cycles
system.cpu0.dcache.ReadReq_miss_rate::.cpu0.data     0.004887                       # miss rate for ReadReq accesses
system.cpu0.dcache.ReadReq_miss_rate::total     0.004887                       # miss rate for ReadReq accesses
system.cpu0.dcache.ReadReq_misses::.cpu0.data        13466                       # number of ReadReq misses
system.cpu0.dcache.ReadReq_misses::total        13466                       # number of ReadReq misses
system.cpu0.dcache.ReadReq_mshr_miss_latency::.cpu0.data   1471304000                       # number of ReadReq MSHR miss cycles
system.cpu0.dcache.ReadReq_mshr_miss_latency::total   1471304000                       # number of ReadReq MSHR miss cycles
system.cpu0.dcache.ReadReq_mshr_miss_rate::.cpu0.data     0.004887                       # mshr miss rate for ReadReq accesses
system.cpu0.dcache.ReadReq_mshr_miss_rate::total     0.004887                       # mshr miss rate for ReadReq accesses
system.cpu0.dcache.ReadReq_mshr_misses::.cpu0.data        13466                       # number of ReadReq MSHR misses
system.cpu0.dcache.ReadReq_mshr_misses::total        13466                       # number of ReadReq MSHR misses
system.cpu0.dcache.WriteReq_accesses::.cpu0.data       864634                       # number of WriteReq accesses(hits+misses)
system.cpu0.dcache.WriteReq_accesses::total       864634                       # number of WriteReq accesses(hits+misses)
system.cpu0.dcache.WriteReq_avg_miss_latency::.cpu0.data 68175.894518                       # average WriteReq miss latency
system.cpu0.dcache.WriteReq_avg_miss_latency::total 68175.894518                       # average WriteReq miss latency
system.cpu0.dcache.WriteReq_avg_mshr_miss_latency::.cpu0.data 66175.894518                       # average WriteReq mshr miss latency
system.cpu0.dcache.WriteReq_avg_mshr_miss_latency::total 66175.894518                       # average WriteReq mshr miss latency
system.cpu0.dcache.WriteReq_hits::.cpu0.data       828078                       # number of WriteReq hits
system.cpu0.dcache.WriteReq_hits::total        828078                       # number of WriteReq hits
system.cpu0.dcache.WriteReq_miss_latency::.cpu0.data   2492238000                       # number of WriteReq miss cycles
system.cpu0.dcache.WriteReq_miss_latency::total   2492238000                       # number of WriteReq miss cycles
system.cpu0.dcache.WriteReq_miss_rate::.cpu0.data     0.042279                       # miss rate for WriteReq accesses
system.cpu0.dcache.WriteReq_miss_rate::total     0.042279                       # miss rate for WriteReq accesses
system.cpu0.dcache.WriteReq_misses::.cpu0.data        36556                       # number of WriteReq misses
system.cpu0.dcache.WriteReq_misses::total        36556                       # number of WriteReq misses
system.cpu0.dcache.WriteReq_mshr_miss_latency::.cpu0.data   2419126000                       # number of WriteReq MSHR miss cycles
system.cpu0.dcache.WriteReq_mshr_miss_latency::total   2419126000                       # number of WriteReq MSHR miss cycles
system.cpu0.dcache.WriteReq_mshr_miss_rate::.cpu0.data     0.042279                       # mshr miss rate for WriteReq accesses
system.cpu0.dcache.WriteReq_mshr_miss_rate::total     0.042279                       # mshr miss rate for WriteReq accesses
system.cpu0.dcache.WriteReq_mshr_misses::.cpu0.data        36556                       # number of WriteReq MSHR misses
system.cpu0.dcache.WriteReq_mshr_misses::total        36556                       # number of WriteReq MSHR misses
system.cpu0.dcache.avg_blocked_cycles::no_mshrs          nan                       # average number of cycles each access was blocked
system.cpu0.dcache.avg_blocked_cycles::no_targets          nan                       # average number of cycles each access was blocked
system.cpu0.dcache.blocked::no_mshrs                0                       # number of cycles access was blocked
system.cpu0.dcache.blocked::no_targets              0                       # number of cycles access was blocked
system.cpu0.dcache.blocked_cycles::no_mshrs            0                       # number of cycles access was blocked
system.cpu0.dcache.blocked_cycles::no_targets            0                       # number of cycles access was blocked
system.cpu0.dcache.demand_accesses::.cpu0.data      3620216                       # number of demand (read+write) accesses
system.cpu0.dcache.demand_accesses::total      3620216                       # number of demand (read+write) accesses
system.cpu0.dcache.demand_avg_miss_latency::.cpu0.data 79774.379273                       # average overall miss latency
system.cpu0.dcache.demand_avg_miss_latency::total 79774.379273                       # average overall miss latency
system.cpu0.dcache.demand_avg_mshr_miss_latency::.cpu0.data 77774.379273                       # average overall mshr miss latency
system.cpu0.dcache.demand_avg_mshr_miss_latency::total 77774.379273                       # average overall mshr miss latency
system.cpu0.dcache.demand_hits::.cpu0.data      3570194                       # number of demand (read+write) hits
system.cpu0.dcache.demand_hits::total         3570194                       # number of demand (read+write) hits
system.cpu0.dcache.demand_miss_latency::.cpu0.data   3990474000                       # number of demand (read+write) miss cycles
system.cpu0.dcache.demand_miss_latency::total   3990474000                       # number of demand (read+write) miss cycles
system.cpu0.dcache.demand_miss_rate::.cpu0.data     0.013817                       # miss rate for demand accesses
system.cpu0.dcache.demand_miss_rate::total     0.013817                       # miss rate for demand accesses
system.cpu0.dcache.demand_misses::.cpu0.data        50022                       # number of demand (read+write) misses
system.cpu0.dcache.demand_misses::total         50022                       # number of demand (read+write) misses
system.cpu0.dcache.demand_mshr_miss_latency::.cpu0.data   3890430000                       # number of demand (read+write) MSHR miss cycles
system.cpu0.dcache.demand_mshr_miss_latency::total   3890430000                       # number of demand (read+write) MSHR miss cycles
system.cpu0.dcache.demand_mshr_miss_rate::.cpu0.data     0.013817                       # mshr miss rate for demand accesses
system.cpu0.dcache.demand_mshr_miss_rate::total     0.013817                       # mshr miss rate for demand accesses
system.cpu0.dcache.demand_mshr_misses::.cpu0.data        50022                       # number of demand (read+write) MSHR misses
system.cpu0.dcache.demand_mshr_misses::total        50022                       # number of demand (read+write) MSHR misses
system.cpu0.dcache.overall_accesses::.cpu0.data      3620216                       # number of overall (read+write) accesses
system.cpu0.dcache.overall_accesses::total      3620216                       # number of overall (read+write) accesses
system.cpu0.dcache.overall_avg_miss_latency::.cpu0.data 79774.379273                       # average overall miss latency
system.cpu0.dcache.overall_avg_miss_latency::total 79774.379273                       # average overall miss latency
system.cpu0.dcache.overall_avg_mshr_miss_latency::.cpu0.data 77774.379273                       # average overall mshr miss latency
system.cpu0.dcache.overall_avg_mshr_miss_latency::total 77774.379273                       # average overall mshr miss latency
system.cpu0.dcache.overall_hits::.cpu0.data      3570194                       # number of overall hits
system.cpu0.dcache.overall_hits::total        3570194                       # number of overall hits
system.cpu0.dcache.overall_miss_latency::.cpu0.data   3990474000                       # number of overall miss cycles
system.cpu0.dcache.overall_miss_latency::total   3990474000                       # number of overall miss cycles
system.cpu0.dcache.overall_miss_rate::.cpu0.data     0.013817                       # miss rate for overall accesses
system.cpu0.dcache.overall_miss_rate::total     0.013817                       # miss rate for overall accesses
system.cpu0.dcache.overall_misses::.cpu0.data        50022                       # number of overall misses
system.cpu0.dcache.overall_misses::total        50022                       # number of overall misses
system.cpu0.dcache.overall_mshr_miss_latency::.cpu0.data   3890430000                       # number of overall MSHR miss cycles
system.cpu0.dcache.overall_mshr_miss_latency::total   3890430000                       # number of overall MSHR miss cycles
system.cpu0.dcache.overall_mshr_miss_rate::.cpu0.data     0.013817                       # mshr miss rate for overall accesses
system.cpu0.dcache.overall_mshr_miss_rate::total     0.013817                       # mshr miss rate for overall accesses
system.cpu0.dcache.overall_mshr_misses::.cpu0.data        50022                       # number of overall MSHR misses
system.cpu0.dcache.overall_mshr_misses::total        50022                       # number of overall MSHR misses
system.cpu0.dcache.pwrStateResidencyTicks::UNDEFINED 1721170568000                       # Cumulative time (in ticks) in various power states
system.cpu0.dcache.replacements                 48998                       # number of replacements
system.cpu0.dcache.tags.age_task_id_blocks_1024::4         1024                       # Occupied blocks per task id
system.cpu0.dcache.tags.avg_refs            72.372476                       # Average number of references to valid blocks.
system.cpu0.dcache.tags.data_accesses         7290454                       # Number of data accesses
system.cpu0.dcache.tags.occ_blocks::.cpu0.data  1023.865201                       # Average occupied blocks per requestor
system.cpu0.dcache.tags.occ_percent::.cpu0.data     0.999868                       # Average percentage of cache occupancy
system.cpu0.dcache.tags.occ_percent::total     0.999868                       # Average percentage of cache occupancy
system.cpu0.dcache.tags.occ_task_id_blocks::1024         1024                       # Occupied blocks per task id
system.cpu0.dcache.tags.occ_task_id_percent::1024            1                       # Percentage of cache occupancy per task id
system.cpu0.dcache.tags.pwrStateResidencyTicks::UNDEFINED 1721170568000                       # Cumulative time (in ticks) in various power states
system.cpu0.dcache.tags.sampled_refs            50022                       # Sample count of references to valid blocks.
system.cpu0.dcache.tags.tag_accesses          7290454                       # Number of tag accesses
system.cpu0.dcache.tags.tagsinuse         1023.865201                       # Cycle average of tags in use
system.cpu0.dcache.tags.total_refs            3620216                       # Total number of references to valid blocks.
system.cpu0.dcache.tags.warmup_cycle           218000                       # Cycle when the warmup percentage was hit.
system.cpu0.dcache.writebacks::.writebacks        36913                       # number of writebacks
system.cpu0.dcache.writebacks::total            36913                       # number of writebacks
system.cpu0.dtb.rdAccesses                    2755582                       # TLB accesses on read requests
system.cpu0.dtb.rdMisses                          904                       # TLB misses on read requests
system.cpu0.dtb.walker.pwrStateResidencyTicks::UNDEFINED 1721170568000                       # Cumulative time (in ticks) in various power states
system.cpu0.dtb.wrAccesses                     864634                       # TLB accesses on write requests
system.cpu0.dtb.wrMisses                           88                       # TLB misses on write requests
system.cpu0.icache.ReadReq_accesses::.cpu0.inst      7637575                       # number of ReadReq accesses(hits+misses)
system.cpu0.icache.ReadReq_accesses::total      7637575                       # number of ReadReq accesses(hits+misses)
system.cpu0.icache.ReadReq_avg_miss_latency::.cpu0.inst 87747.762408                       # average ReadReq miss latency
system.cpu0.icache.ReadReq_avg_miss_latency::total 87747.762408                       # average ReadReq miss latency
system.cpu0.icache.ReadReq_avg_mshr_miss_latency::.cpu0.inst 85747.762408                       # average ReadReq mshr miss latency
system.cpu0.icache.ReadReq_avg_mshr_miss_latency::total 85747.762408                       # average ReadReq mshr miss latency
system.cpu0.icache.ReadReq_hits::.cpu0.inst      7635117                       # number of ReadReq hits
system.cpu0.icache.ReadReq_hits::total        7635117                       # number of ReadReq hits
system.cpu0.icache.ReadReq_miss_latency::.cpu0.inst    215684000                       # number of ReadReq miss cycles
system.cpu0.icache.ReadReq_miss_latency::total    215684000                       # number of ReadReq miss cycles
system.cpu0.icache.ReadReq_miss_rate::.cpu0.inst     0.000322                       # miss rate for ReadReq accesses
system.cpu0.icache.ReadReq_miss_rate::total     0.000322                       # miss rate for ReadReq accesses
system.cpu0.icache.ReadReq_misses::.cpu0.inst         2458                       # number of ReadReq misses
system.cpu0.icache.ReadReq_misses::total         2458                       # number of ReadReq misses
system.cpu0.icache.ReadReq_mshr_miss_latency::.cpu0.inst    210768000                       # number of ReadReq MSHR miss cycles
system.cpu0.icache.ReadReq_mshr_miss_latency::total    210768000                       # number of ReadReq MSHR miss cycles
system.cpu0.icache.ReadReq_mshr_miss_rate::.cpu0.inst     0.000322                       # mshr miss rate for ReadReq accesses
system.cpu0.icache.ReadReq_mshr_miss_rate::total     0.000322                       # mshr miss rate for ReadReq accesses
system.cpu0.icache.ReadReq_mshr_misses::.cpu0.inst         2458                       # number of ReadReq MSHR misses
system.cpu0.icache.ReadReq_mshr_misses::total         2458                       # number of ReadReq MSHR misses
system.cpu0.icache.avg_blocked_cycles::no_mshrs          nan                       # average number of cycles each access was blocked
system.cpu0.icache.avg_blocked_cycles::no_targets          nan                       # average number of cycles each access was blocked
system.cpu0.icache.blocked::no_mshrs                0                       # number of cycles access was blocked
system.cpu0.icache.blocked::no_targets              0                       # number of cycles access was blocked
system.cpu0.icache.blocked_cycles::no_mshrs            0                       # number of cycles access was blocked
system.cpu0.icache.blocked_cycles::no_targets            0                       # number of cycles access was blocked
system.cpu0.icache.demand_accesses::.cpu0.inst      7637575                       # number of demand (read+write) accesses
system.cpu0.icache.demand_accesses::total      7637575                       # number of demand (read+write) accesses
system.cpu0.icache.demand_avg_miss_latency::.cpu0.inst 87747.762408                       # average overall miss latency
system.cpu0.icache.demand_avg_miss_latency::total 87747.762408                       # average overall miss latency
system.cpu0.icache.demand_avg_mshr_miss_latency::.cpu0.inst 85747.762408                       # average overall mshr miss latency
system.cpu0.icache.demand_avg_mshr_miss_latency::total 85747.762408                       # average overall mshr miss latency
system.cpu0.icache.demand_hits::.cpu0.inst      7635117                       # number of demand (read+write) hits
system.cpu0.icache.demand_hits::total         7635117                       # number of demand (read+write) hits
system.cpu0.icache.demand_miss_latency::.cpu0.inst    215684000                       # number of demand (read+write) miss cycles
system.cpu0.icache.demand_miss_latency::total    215684000                       # number of demand (read+write) miss cycles
system.cpu0.icache.demand_miss_rate::.cpu0.inst     0.000322                       # miss rate for demand accesses
system.cpu0.icache.demand_miss_rate::total     0.000322                       # miss rate for demand accesses
system.cpu0.icache.demand_misses::.cpu0.inst         2458                       # number of demand (read+write) misses
system.cpu0.icache.demand_misses::total          2458                       # number of demand (read+write) misses
system.cpu0.icache.demand_mshr_miss_latency::.cpu0.inst    210768000                       # number of demand (read+write) MSHR miss cycles
system.cpu0.icache.demand_mshr_miss_latency::total    210768000                       # number of demand (read+write) MSHR miss cycles
system.cpu0.icache.demand_mshr_miss_rate::.cpu0.inst     0.000322                       # mshr miss rate for demand accesses
system.cpu0.icache.demand_mshr_miss_rate::total     0.000322                       # mshr miss rate for demand accesses
system.cpu0.icache.demand_mshr_misses::.cpu0.inst         2458                       # number of demand (read+write) MSHR misses
system.cpu0.icache.demand_mshr_misses::total         2458                       # number of demand (read+write) MSHR misses
system.cpu0.icache.overall_accesses::.cpu0.inst      7637575                       # number of overall (read+write) accesses
system.cpu0.icache.overall_accesses::total      7637575                       # number of overall (read+write) accesses
system.cpu0.icache.overall_avg_miss_latency::.cpu0.inst 87747.762408                       # average overall miss latency
system.cpu0.icache.overall_avg_miss_latency::total 87747.762408                       # average overall miss latency
system.cpu0.icache.overall_avg_mshr_miss_latency::.cpu0.inst 85747.762408                       # average overall mshr miss latency
system.cpu0.icache.overall_avg_mshr_miss_latency::total 85747.762408                       # average overall mshr miss latency
system.cpu0.icache.overall_hits::.cpu0.inst      7635117                       # number of overall hits
system.cpu0.icache.overall_hits::total        7635117                       # number of overall hits
system.cpu0.icache.overall_miss_latency::.cpu0.inst    215684000                       # number of overall miss cycles
system.cpu0.icache.overall_miss_latency::total    215684000                       # number of overall miss cycles
system.cpu0.icache.overall_miss_rate::.cpu0.inst     0.000322                       # miss rate for overall accesses
system.cpu0.icache.overall_miss_rate::total     0.000322                       # miss rate for overall accesses
system.cpu0.icache.overall_misses::.cpu0.inst         2458                       # number of overall misses
system.cpu0.icache.overall_misses::total         2458                       # number of overall misses
system.cpu0.icache.overall_mshr_miss_latency::.cpu0.inst    210768000                       # number of overall MSHR miss cycles
system.cpu0.icache.overall_mshr_miss_latency::total    210768000                       # number of overall MSHR miss cycles
system.cpu0.icache.overall_mshr_miss_rate::.cpu0.inst     0.000322                       # mshr miss rate for overall accesses
system.cpu0.icache.overall_mshr_miss_rate::total     0.000322                       # mshr miss rate for overall accesses
system.cpu0.icache.overall_mshr_misses::.cpu0.inst         2458                       # number of overall MSHR misses
system.cpu0.icache.overall_mshr_misses::total         2458                       # number of overall MSHR misses
system.cpu0.icache.pwrStateResidencyTicks::UNDEFINED 1721170568000                       # Cumulative time (in ticks) in various power states
system.cpu0.icache.replacements                  2202                       # number of replacements
system.cpu0.icache.tags.age_task_id_blocks_1024::4          256                       # Occupied blocks per task id
system.cpu0.icache.tags.avg_refs          3107.231489                       # Average number of references to valid blocks.
system.cpu0.icache.tags.data_accesses        15277608                       # Number of data accesses
system.cpu0.icache.tags.occ_blocks::.cpu0.inst   255.979429                       # Average occupied blocks per requestor
system.cpu0.icache.tags.occ_percent::.cpu0.inst     0.999920                       # Average percentage of cache occupancy
system.cpu0.icache.tags.occ_percent::total     0.999920                       # Average percentage of cache occupancy
system.cpu0.icache.tags.occ_task_id_blocks::1024          256                       # Occupied blocks per task id
system.cpu0.icache.tags.occ_task_id_percent::1024            1                       # Percentage of cache occupancy per task id
system.cpu0.icache.tags.pwrStateResidencyTicks::UNDEFINED 1721170568000                       # Cumulative time (in ticks) in various power states
system.cpu0.icache.tags.sampled_refs             2458                       # Sample count of references to valid blocks.
system.cpu0.icache.tags.tag_accesses         15277608                       # Number of tag accesses
system.cpu0.icache.tags.tagsinuse          255.979429                       # Cycle average of tags in use
system.cpu0.icache.tags.total_refs            7637575                       # Total number of references to valid blocks.
system.cpu0.icache.tags.warmup_cycle           107000                       # Cycle when the warmup percentage was hit.
system.cpu0.idle_fraction                    0.984536                       # Percentage of idle cycles
system.cpu0.interrupts.clk_domain.clock         16000                       # Clock period in ticks
system.cpu0.interrupts.pwrStateResidencyTicks::UNDEFINED 1721170568000                       # Cumulative time (in ticks) in various power states
system.cpu0.itb.rdAccesses                          0                       # TLB accesses on read requests
system.cpu0.itb.rdMisses                            0                       # TLB misses on read requests
system.cpu0.itb.walker.pwrStateResidencyTicks::UNDEFINED 1721170568000                       # Cumulative time (in ticks) in various power states
system.cpu0.itb.wrAccesses                    7637575                       # TLB accesses on write requests
system.cpu0.itb.wrMisses                          287                       # TLB misses on write requests
system.cpu0.not_idle_fraction                0.015464                       # Percentage of non-idle cycles
system.cpu0.numCycles                        26616727                       # number of cpu cycles simulated
system.cpu0.numWorkItemsCompleted                   0                       # number of work items this cpu completed
system.cpu0.numWorkItemsStarted                     0                       # number of work items this cpu started
system.cpu0.num_busy_cycles              411609.499583                       # Number of busy cycles
system.cpu0.num_cc_register_reads             4749339                       # number of times the CC registers were read
system.cpu0.num_cc_register_writes            3541090                       # number of times the CC registers were written
system.cpu0.num_conditional_control_insts       795867                       # number of instructions that are conditional controls
system.cpu0.num_fp_alu_accesses                 73417                       # Number of float alu accesses
system.cpu0.num_fp_insts                        73417                       # number of float instructions
system.cpu0.num_fp_register_reads              100729                       # number of times the floating registers were read
system.cpu0.num_fp_register_writes              53576                       # number of times the floating registers were written
system.cpu0.num_func_calls                      18274                       # number of times a function call or return occured
system.cpu0.num_idle_cycles              26205117.500417                       # Number of idle cycles
system.cpu0.num_int_alu_accesses             10989573                       # Number of integer alu accesses
system.cpu0.num_int_insts                    10989573                       # number of integer instructions
system.cpu0.num_int_register_reads           22870723                       # number of times the integer registers were read
system.cpu0.num_int_register_writes           8959437                       # number of times the integer registers were written
system.cpu0.num_load_insts                    2755555                       # Number of load instructions
system.cpu0.num_mem_refs                      3620179                       # number of memory refs
system.cpu0.num_store_insts                    864624                       # Number of store instructions
system.cpu0.num_vec_alu_accesses                    0                       # Number of vector alu accesses
system.cpu0.num_vec_insts                           0                       # number of vector instructions
system.cpu0.num_vec_register_reads                  0                       # number of times the vector registers were read
system.cpu0.num_vec_register_writes                 0                       # number of times the vector registers were written
system.cpu0.op_class::No_OpClass                19405      0.18%      0.18% # Class of executed instruction
system.cpu0.op_class::IntAlu                  7326923     66.35%     66.53% # Class of executed instruction
system.cpu0.op_class::IntMult                     415      0.00%     66.53% # Class of executed instruction
system.cpu0.op_class::IntDiv                    34769      0.31%     66.84% # Class of executed instruction
system.cpu0.op_class::FloatAdd                   2884      0.03%     66.87% # Class of executed instruction
system.cpu0.op_class::FloatCmp                      0      0.00%     66.87% # Class of executed instruction
system.cpu0.op_class::FloatCvt                   1344      0.01%     66.88% # Class of executed instruction
system.cpu0.op_class::FloatMult                     0      0.00%     66.88% # Class of executed instruction
system.cpu0.op_class::FloatMultAcc                  0      0.00%     66.88% # Class of executed instruction
system.cpu0.op_class::FloatDiv                      0      0.00%     66.88% # Class of executed instruction
system.cpu0.op_class::FloatMisc                     0      0.00%     66.88% # Class of executed instruction
system.cpu0.op_class::FloatSqrt                     0      0.00%     66.88% # Class of executed instruction
system.cpu0.op_class::SimdAdd                    6146      0.06%     66.94% # Class of executed instruction
system.cpu0.op_class::SimdAddAcc                    0      0.00%     66.94% # Class of executed instruction
system.cpu0.op_class::SimdAlu                   11116      0.10%     67.04% # Class of executed instruction
system.cpu0.op_class::SimdCmp                       0      0.00%     67.04% # Class of executed instruction
system.cpu0.op_class::SimdCvt                   12010      0.11%     67.15% # Class of executed instruction
system.cpu0.op_class::SimdMisc                   6520      0.06%     67.21% # Class of executed instruction
system.cpu0.op_class::SimdMult                      0      0.00%     67.21% # Class of executed instruction
system.cpu0.op_class::SimdMultAcc                   0      0.00%     67.21% # Class of executed instruction
system.cpu0.op_class::SimdShift                  1018      0.01%     67.22% # Class of executed instruction
system.cpu0.op_class::SimdShiftAcc                  0      0.00%     67.22% # Class of executed instruction
system.cpu0.op_class::SimdDiv                       0      0.00%     67.22% # Class of executed instruction
system.cpu0.op_class::SimdSqrt                      0      0.00%     67.22% # Class of executed instruction
system.cpu0.op_class::SimdFloatAdd                  0      0.00%     67.22% # Class of executed instruction
system.cpu0.op_class::SimdFloatAlu                  0      0.00%     67.22% # Class of executed instruction
system.cpu0.op_class::SimdFloatCmp                  0      0.00%     67.22% # Class of executed instruction
system.cpu0.op_class::SimdFloatCvt                  0      0.00%     67.22% # Class of executed instruction
system.cpu0.op_class::SimdFloatDiv                  0      0.00%     67.22% # Class of executed instruction
system.cpu0.op_class::SimdFloatMisc                 0      0.00%     67.22% # Class of executed instruction
system.cpu0.op_class::SimdFloatMult                 0      0.00%     67.22% # Class of executed instruction
system.cpu0.op_class::SimdFloatMultAcc              0      0.00%     67.22% # Class of executed instruction
system.cpu0.op_class::SimdFloatSqrt                 0      0.00%     67.22% # Class of executed instruction
system.cpu0.op_class::SimdReduceAdd                 0      0.00%     67.22% # Class of executed instruction
system.cpu0.op_class::SimdReduceAlu                 0      0.00%     67.22% # Class of executed instruction
system.cpu0.op_class::SimdReduceCmp                 0      0.00%     67.22% # Class of executed instruction
system.cpu0.op_class::SimdFloatReduceAdd            0      0.00%     67.22% # Class of executed instruction
system.cpu0.op_class::SimdFloatReduceCmp            0      0.00%     67.22% # Class of executed instruction
system.cpu0.op_class::SimdAes                       0      0.00%     67.22% # Class of executed instruction
system.cpu0.op_class::SimdAesMix                    0      0.00%     67.22% # Class of executed instruction
system.cpu0.op_class::SimdSha1Hash                  0      0.00%     67.22% # Class of executed instruction
system.cpu0.op_class::SimdSha1Hash2                 0      0.00%     67.22% # Class of executed instruction
system.cpu0.op_class::SimdSha256Hash                0      0.00%     67.22% # Class of executed instruction
system.cpu0.op_class::SimdSha256Hash2               0      0.00%     67.22% # Class of executed instruction
system.cpu0.op_class::SimdShaSigma2                 0      0.00%     67.22% # Class of executed instruction
system.cpu0.op_class::SimdShaSigma3                 0      0.00%     67.22% # Class of executed instruction
system.cpu0.op_class::SimdPredAlu                   0      0.00%     67.22% # Class of executed instruction
system.cpu0.op_class::MemRead                 2736247     24.78%     92.00% # Class of executed instruction
system.cpu0.op_class::MemWrite                 852271      7.72%     99.71% # Class of executed instruction
system.cpu0.op_class::FloatMemRead              19308      0.17%     99.89% # Class of executed instruction
system.cpu0.op_class::FloatMemWrite             12353      0.11%    100.00% # Class of executed instruction
system.cpu0.op_class::IprAccess                     0      0.00%    100.00% # Class of executed instruction
system.cpu0.op_class::InstPrefetch                  0      0.00%    100.00% # Class of executed instruction
system.cpu0.op_class::total                  11042729                       # Class of executed instruction
system.cpu0.pwrStateResidencyTicks::ON   1721170568000                       # Cumulative time (in ticks) in various power states
system.cpu0.workload.numSyscalls                   59                       # Number of system calls
system.cpu1.Branches                          1225834                       # Number of branches fetched
system.cpu1.committedInsts                    5971651                       # Number of instructions committed
system.cpu1.committedOps                     11042729                       # Number of ops (including micro ops) committed
system.cpu1.dcache.ReadReq_accesses::.cpu1.data      2755582                       # number of ReadReq accesses(hits+misses)
system.cpu1.dcache.ReadReq_accesses::total      2755582                       # number of ReadReq accesses(hits+misses)
system.cpu1.dcache.ReadReq_avg_miss_latency::.cpu1.data 110724.715338                       # average ReadReq miss latency
system.cpu1.dcache.ReadReq_avg_miss_latency::total 110724.715338                       # average ReadReq miss latency
system.cpu1.dcache.ReadReq_avg_mshr_miss_latency::.cpu1.data 108724.715338                       # average ReadReq mshr miss latency
system.cpu1.dcache.ReadReq_avg_mshr_miss_latency::total 108724.715338                       # average ReadReq mshr miss latency
system.cpu1.dcache.ReadReq_hits::.cpu1.data      2742145                       # number of ReadReq hits
system.cpu1.dcache.ReadReq_hits::total        2742145                       # number of ReadReq hits
system.cpu1.dcache.ReadReq_miss_latency::.cpu1.data   1487808000                       # number of ReadReq miss cycles
system.cpu1.dcache.ReadReq_miss_latency::total   1487808000                       # number of ReadReq miss cycles
system.cpu1.dcache.ReadReq_miss_rate::.cpu1.data     0.004876                       # miss rate for ReadReq accesses
system.cpu1.dcache.ReadReq_miss_rate::total     0.004876                       # miss rate for ReadReq accesses
system.cpu1.dcache.ReadReq_misses::.cpu1.data        13437                       # number of ReadReq misses
system.cpu1.dcache.ReadReq_misses::total        13437                       # number of ReadReq misses
system.cpu1.dcache.ReadReq_mshr_miss_latency::.cpu1.data   1460934000                       # number of ReadReq MSHR miss cycles
system.cpu1.dcache.ReadReq_mshr_miss_latency::total   1460934000                       # number of ReadReq MSHR miss cycles
system.cpu1.dcache.ReadReq_mshr_miss_rate::.cpu1.data     0.004876                       # mshr miss rate for ReadReq accesses
system.cpu1.dcache.ReadReq_mshr_miss_rate::total     0.004876                       # mshr miss rate for ReadReq accesses
system.cpu1.dcache.ReadReq_mshr_misses::.cpu1.data        13437                       # number of ReadReq MSHR misses
system.cpu1.dcache.ReadReq_mshr_misses::total        13437                       # number of ReadReq MSHR misses
system.cpu1.dcache.WriteReq_accesses::.cpu1.data       864634                       # number of WriteReq accesses(hits+misses)
system.cpu1.dcache.WriteReq_accesses::total       864634                       # number of WriteReq accesses(hits+misses)
system.cpu1.dcache.WriteReq_avg_miss_latency::.cpu1.data 70955.379426                       # average WriteReq miss latency
system.cpu1.dcache.WriteReq_avg_miss_latency::total 70955.379426                       # average WriteReq miss latency
system.cpu1.dcache.WriteReq_avg_mshr_miss_latency::.cpu1.data 68955.379426                       # average WriteReq mshr miss latency
system.cpu1.dcache.WriteReq_avg_mshr_miss_latency::total 68955.379426                       # average WriteReq mshr miss latency
system.cpu1.dcache.WriteReq_hits::.cpu1.data       828171                       # number of WriteReq hits
system.cpu1.dcache.WriteReq_hits::total        828171                       # number of WriteReq hits
system.cpu1.dcache.WriteReq_miss_latency::.cpu1.data   2587246000                       # number of WriteReq miss cycles
system.cpu1.dcache.WriteReq_miss_latency::total   2587246000                       # number of WriteReq miss cycles
system.cpu1.dcache.WriteReq_miss_rate::.cpu1.data     0.042172                       # miss rate for WriteReq accesses
system.cpu1.dcache.WriteReq_miss_rate::total     0.042172                       # miss rate for WriteReq accesses
system.cpu1.dcache.WriteReq_misses::.cpu1.data        36463                       # number of WriteReq misses
system.cpu1.dcache.WriteReq_misses::total        36463                       # number of WriteReq misses
system.cpu1.dcache.WriteReq_mshr_miss_latency::.cpu1.data   2514320000                       # number of WriteReq MSHR miss cycles
system.cpu1.dcache.WriteReq_mshr_miss_latency::total   2514320000                       # number of WriteReq MSHR miss cycles
system.cpu1.dcache.WriteReq_mshr_miss_rate::.cpu1.data     0.042172                       # mshr miss rate for WriteReq accesses
system.cpu1.dcache.WriteReq_mshr_miss_rate::total     0.042172                       # mshr miss rate for WriteReq accesses
system.cpu1.dcache.WriteReq_mshr_misses::.cpu1.data        36463                       # number of WriteReq MSHR misses
system.cpu1.dcache.WriteReq_mshr_misses::total        36463                       # number of WriteReq MSHR misses
system.cpu1.dcache.avg_blocked_cycles::no_mshrs          nan                       # average number of cycles each access was blocked
system.cpu1.dcache.avg_blocked_cycles::no_targets          nan                       # average number of cycles each access was blocked
system.cpu1.dcache.blocked::no_mshrs                0                       # number of cycles access was blocked
system.cpu1.dcache.blocked::no_targets              0                       # number of cycles access was blocked
system.cpu1.dcache.blocked_cycles::no_mshrs            0                       # number of cycles access was blocked
system.cpu1.dcache.blocked_cycles::no_targets            0                       # number of cycles access was blocked
system.cpu1.dcache.demand_accesses::.cpu1.data      3620216                       # number of demand (read+write) accesses
system.cpu1.dcache.demand_accesses::total      3620216                       # number of demand (read+write) accesses
system.cpu1.dcache.demand_avg_miss_latency::.cpu1.data 81664.408818                       # average overall miss latency
system.cpu1.dcache.demand_avg_miss_latency::total 81664.408818                       # average overall miss latency
system.cpu1.dcache.demand_avg_mshr_miss_latency::.cpu1.data 79664.408818                       # average overall mshr miss latency
system.cpu1.dcache.demand_avg_mshr_miss_latency::total 79664.408818                       # average overall mshr miss latency
system.cpu1.dcache.demand_hits::.cpu1.data      3570316                       # number of demand (read+write) hits
system.cpu1.dcache.demand_hits::total         3570316                       # number of demand (read+write) hits
system.cpu1.dcache.demand_miss_latency::.cpu1.data   4075054000                       # number of demand (read+write) miss cycles
system.cpu1.dcache.demand_miss_latency::total   4075054000                       # number of demand (read+write) miss cycles
system.cpu1.dcache.demand_miss_rate::.cpu1.data     0.013784                       # miss rate for demand accesses
system.cpu1.dcache.demand_miss_rate::total     0.013784                       # miss rate for demand accesses
system.cpu1.dcache.demand_misses::.cpu1.data        49900                       # number of demand (read+write) misses
system.cpu1.dcache.demand_misses::total         49900                       # number of demand (read+write) misses
system.cpu1.dcache.demand_mshr_miss_latency::.cpu1.data   3975254000                       # number of demand (read+write) MSHR miss cycles
system.cpu1.dcache.demand_mshr_miss_latency::total   3975254000                       # number of demand (read+write) MSHR miss cycles
system.cpu1.dcache.demand_mshr_miss_rate::.cpu1.data     0.013784                       # mshr miss rate for demand accesses
system.cpu1.dcache.demand_mshr_miss_rate::total     0.013784                       # mshr miss rate for demand accesses
system.cpu1.dcache.demand_mshr_misses::.cpu1.data        49900                       # number of demand (read+write) MSHR misses
system.cpu1.dcache.demand_mshr_misses::total        49900                       # number of demand (read+write) MSHR misses
system.cpu1.dcache.overall_accesses::.cpu1.data      3620216                       # number of overall (read+write) accesses
system.cpu1.dcache.overall_accesses::total      3620216                       # number of overall (read+write) accesses
system.cpu1.dcache.overall_avg_miss_latency::.cpu1.data 81664.408818                       # average overall miss latency
system.cpu1.dcache.overall_avg_miss_latency::total 81664.408818                       # average overall miss latency
system.cpu1.dcache.overall_avg_mshr_miss_latency::.cpu1.data 79664.408818                       # average overall mshr miss latency
system.cpu1.dcache.overall_avg_mshr_miss_latency::total 79664.408818                       # average overall mshr miss latency
system.cpu1.dcache.overall_hits::.cpu1.data      3570316                       # number of overall hits
system.cpu1.dcache.overall_hits::total        3570316                       # number of overall hits
system.cpu1.dcache.overall_miss_latency::.cpu1.data   4075054000                       # number of overall miss cycles
system.cpu1.dcache.overall_miss_latency::total   4075054000                       # number of overall miss cycles
system.cpu1.dcache.overall_miss_rate::.cpu1.data     0.013784                       # miss rate for overall accesses
system.cpu1.dcache.overall_miss_rate::total     0.013784                       # miss rate for overall accesses
system.cpu1.dcache.overall_misses::.cpu1.data        49900                       # number of overall misses
system.cpu1.dcache.overall_misses::total        49900                       # number of overall misses
system.cpu1.dcache.overall_mshr_miss_latency::.cpu1.data   3975254000                       # number of overall MSHR miss cycles
system.cpu1.dcache.overall_mshr_miss_latency::total   3975254000                       # number of overall MSHR miss cycles
system.cpu1.dcache.overall_mshr_miss_rate::.cpu1.data     0.013784                       # mshr miss rate for overall accesses
system.cpu1.dcache.overall_mshr_miss_rate::total     0.013784                       # mshr miss rate for overall accesses
system.cpu1.dcache.overall_mshr_misses::.cpu1.data        49900                       # number of overall MSHR misses
system.cpu1.dcache.overall_mshr_misses::total        49900                       # number of overall MSHR misses
system.cpu1.dcache.pwrStateResidencyTicks::UNDEFINED 1721170568000                       # Cumulative time (in ticks) in various power states
system.cpu1.dcache.replacements                 48876                       # number of replacements
system.cpu1.dcache.tags.age_task_id_blocks_1024::4         1024                       # Occupied blocks per task id
system.cpu1.dcache.tags.avg_refs            72.549419                       # Average number of references to valid blocks.
system.cpu1.dcache.tags.data_accesses         7290332                       # Number of data accesses
system.cpu1.dcache.tags.occ_blocks::.cpu1.data  1023.866514                       # Average occupied blocks per requestor
system.cpu1.dcache.tags.occ_percent::.cpu1.data     0.999870                       # Average percentage of cache occupancy
system.cpu1.dcache.tags.occ_percent::total     0.999870                       # Average percentage of cache occupancy
system.cpu1.dcache.tags.occ_task_id_blocks::1024         1024                       # Occupied blocks per task id
system.cpu1.dcache.tags.occ_task_id_percent::1024            1                       # Percentage of cache occupancy per task id
system.cpu1.dcache.tags.pwrStateResidencyTicks::UNDEFINED 1721170568000                       # Cumulative time (in ticks) in various power states
system.cpu1.dcache.tags.sampled_refs            49900                       # Sample count of references to valid blocks.
system.cpu1.dcache.tags.tag_accesses          7290332                       # Number of tag accesses
system.cpu1.dcache.tags.tagsinuse         1023.866514                       # Cycle average of tags in use
system.cpu1.dcache.tags.total_refs            3620216                       # Total number of references to valid blocks.
system.cpu1.dcache.tags.warmup_cycle           225000                       # Cycle when the warmup percentage was hit.
system.cpu1.dcache.writebacks::.writebacks        36925                       # number of writebacks
system.cpu1.dcache.writebacks::total            36925                       # number of writebacks
system.cpu1.dtb.rdAccesses                    2755582                       # TLB accesses on read requests
system.cpu1.dtb.rdMisses                          903                       # TLB misses on read requests
system.cpu1.dtb.walker.pwrStateResidencyTicks::UNDEFINED 1721170568000                       # Cumulative time (in ticks) in various power states
system.cpu1.dtb.wrAccesses                     864634                       # TLB accesses on write requests
system.cpu1.dtb.wrMisses                           88                       # TLB misses on write requests
system.cpu1.icache.ReadReq_accesses::.cpu1.inst      7637575                       # number of ReadReq accesses(hits+misses)
system.cpu1.icache.ReadReq_accesses::total      7637575                       # number of ReadReq accesses(hits+misses)
system.cpu1.icache.ReadReq_avg_miss_latency::.cpu1.inst 89534.076828                       # average ReadReq miss latency
system.cpu1.icache.ReadReq_avg_miss_latency::total 89534.076828                       # average ReadReq miss latency
system.cpu1.icache.ReadReq_avg_mshr_miss_latency::.cpu1.inst 87534.076828                       # average ReadReq mshr miss latency
system.cpu1.icache.ReadReq_avg_mshr_miss_latency::total 87534.076828                       # average ReadReq mshr miss latency
system.cpu1.icache.ReadReq_hits::.cpu1.inst      7635154                       # number of ReadReq hits
system.cpu1.icache.ReadReq_hits::total        7635154                       # number of ReadReq hits
system.cpu1.icache.ReadReq_miss_latency::.cpu1.inst    216762000                       # number of ReadReq miss cycles
system.cpu1.icache.ReadReq_miss_latency::total    216762000                       # number of ReadReq miss cycles
system.cpu1.icache.ReadReq_miss_rate::.cpu1.inst     0.000317                       # miss rate for ReadReq accesses
system.cpu1.icache.ReadReq_miss_rate::total     0.000317                       # miss rate for ReadReq accesses
system.cpu1.icache.ReadReq_misses::.cpu1.inst         2421                       # number of ReadReq misses
system.cpu1.icache.ReadReq_misses::total         2421                       # number of ReadReq misses
system.cpu1.icache.ReadReq_mshr_miss_latency::.cpu1.inst    211920000                       # number of ReadReq MSHR miss cycles
system.cpu1.icache.ReadReq_mshr_miss_latency::total    211920000                       # number of ReadReq MSHR miss cycles
system.cpu1.icache.ReadReq_mshr_miss_rate::.cpu1.inst     0.000317                       # mshr miss rate for ReadReq accesses
system.cpu1.icache.ReadReq_mshr_miss_rate::total     0.000317                       # mshr miss rate for ReadReq accesses
system.cpu1.icache.ReadReq_mshr_misses::.cpu1.inst         2421                       # number of ReadReq MSHR misses
system.cpu1.icache.ReadReq_mshr_misses::total         2421                       # number of ReadReq MSHR misses
system.cpu1.icache.avg_blocked_cycles::no_mshrs          nan                       # average number of cycles each access was blocked
system.cpu1.icache.avg_blocked_cycles::no_targets          nan                       # average number of cycles each access was blocked
system.cpu1.icache.blocked::no_mshrs                0                       # number of cycles access was blocked
system.cpu1.icache.blocked::no_targets              0                       # number of cycles access was blocked
system.cpu1.icache.blocked_cycles::no_mshrs            0                       # number of cycles access was blocked
system.cpu1.icache.blocked_cycles::no_targets            0                       # number of cycles access was blocked
system.cpu1.icache.demand_accesses::.cpu1.inst      7637575                       # number of demand (read+write) accesses
system.cpu1.icache.demand_accesses::total      7637575                       # number of demand (read+write) accesses
system.cpu1.icache.demand_avg_miss_latency::.cpu1.inst 89534.076828                       # average overall miss latency
system.cpu1.icache.demand_avg_miss_latency::total 89534.076828                       # average overall miss latency
system.cpu1.icache.demand_avg_mshr_miss_latency::.cpu1.inst 87534.076828                       # average overall mshr miss latency
system.cpu1.icache.demand_avg_mshr_miss_latency::total 87534.076828                       # average overall mshr miss latency
system.cpu1.icache.demand_hits::.cpu1.inst      7635154                       # number of demand (read+write) hits
system.cpu1.icache.demand_hits::total         7635154                       # number of demand (read+write) hits
system.cpu1.icache.demand_miss_latency::.cpu1.inst    216762000                       # number of demand (read+write) miss cycles
system.cpu1.icache.demand_miss_latency::total    216762000                       # number of demand (read+write) miss cycles
system.cpu1.icache.demand_miss_rate::.cpu1.inst     0.000317                       # miss rate for demand accesses
system.cpu1.icache.demand_miss_rate::total     0.000317                       # miss rate for demand accesses
system.cpu1.icache.demand_misses::.cpu1.inst         2421                       # number of demand (read+write) misses
system.cpu1.icache.demand_misses::total          2421                       # number of demand (read+write) misses
system.cpu1.icache.demand_mshr_miss_latency::.cpu1.inst    211920000                       # number of demand (read+write) MSHR miss cycles
system.cpu1.icache.demand_mshr_miss_latency::total    211920000                       # number of demand (read+write) MSHR miss cycles
system.cpu1.icache.demand_mshr_miss_rate::.cpu1.inst     0.000317                       # mshr miss rate for demand accesses
system.cpu1.icache.demand_mshr_miss_rate::total     0.000317                       # mshr miss rate for demand accesses
system.cpu1.icache.demand_mshr_misses::.cpu1.inst         2421                       # number of demand (read+write) MSHR misses
system.cpu1.icache.demand_mshr_misses::total         2421                       # number of demand (read+write) MSHR misses
system.cpu1.icache.overall_accesses::.cpu1.inst      7637575                       # number of overall (read+write) accesses
system.cpu1.icache.overall_accesses::total      7637575                       # number of overall (read+write) accesses
system.cpu1.icache.overall_avg_miss_latency::.cpu1.inst 89534.076828                       # average overall miss latency
system.cpu1.icache.overall_avg_miss_latency::total 89534.076828                       # average overall miss latency
system.cpu1.icache.overall_avg_mshr_miss_latency::.cpu1.inst 87534.076828                       # average overall mshr miss latency
system.cpu1.icache.overall_avg_mshr_miss_latency::total 87534.076828                       # average overall mshr miss latency
system.cpu1.icache.overall_hits::.cpu1.inst      7635154                       # number of overall hits
system.cpu1.icache.overall_hits::total        7635154                       # number of overall hits
system.cpu1.icache.overall_miss_latency::.cpu1.inst    216762000                       # number of overall miss cycles
system.cpu1.icache.overall_miss_latency::total    216762000                       # number of overall miss cycles
system.cpu1.icache.overall_miss_rate::.cpu1.inst     0.000317                       # miss rate for overall accesses
system.cpu1.icache.overall_miss_rate::total     0.000317                       # miss rate for overall accesses
system.cpu1.icache.overall_misses::.cpu1.inst         2421                       # number of overall misses
system.cpu1.icache.overall_misses::total         2421                       # number of overall misses
system.cpu1.icache.overall_mshr_miss_latency::.cpu1.inst    211920000                       # number of overall MSHR miss cycles
system.cpu1.icache.overall_mshr_miss_latency::total    211920000                       # number of overall MSHR miss cycles
system.cpu1.icache.overall_mshr_miss_rate::.cpu1.inst     0.000317                       # mshr miss rate for overall accesses
system.cpu1.icache.overall_mshr_miss_rate::total     0.000317                       # mshr miss rate for overall accesses
system.cpu1.icache.overall_mshr_misses::.cpu1.inst         2421                       # number of overall MSHR misses
system.cpu1.icache.overall_mshr_misses::total         2421                       # number of overall MSHR misses
system.cpu1.icache.pwrStateResidencyTicks::UNDEFINED 1721170568000                       # Cumulative time (in ticks) in various power states
system.cpu1.icache.replacements                  2165                       # number of replacements
system.cpu1.icache.tags.age_task_id_blocks_1024::4          256                       # Occupied blocks per task id
system.cpu1.icache.tags.avg_refs          3154.719124                       # Average number of references to valid blocks.
system.cpu1.icache.tags.data_accesses        15277571                       # Number of data accesses
system.cpu1.icache.tags.occ_blocks::.cpu1.inst   255.983351                       # Average occupied blocks per requestor
system.cpu1.icache.tags.occ_percent::.cpu1.inst     0.999935                       # Average percentage of cache occupancy
system.cpu1.icache.tags.occ_percent::total     0.999935                       # Average percentage of cache occupancy
system.cpu1.icache.tags.occ_task_id_blocks::1024          256                       # Occupied blocks per task id
system.cpu1.icache.tags.occ_task_id_percent::1024            1                       # Percentage of cache occupancy per task id
system.cpu1.icache.tags.pwrStateResidencyTicks::UNDEFINED 1721170568000                       # Cumulative time (in ticks) in various power states
system.cpu1.icache.tags.sampled_refs             2421                       # Sample count of references to valid blocks.
system.cpu1.icache.tags.tag_accesses         15277571                       # Number of tag accesses
system.cpu1.icache.tags.tagsinuse          255.983351                       # Cycle average of tags in use
system.cpu1.icache.tags.total_refs            7637575                       # Total number of references to valid blocks.
system.cpu1.icache.tags.warmup_cycle           114000                       # Cycle when the warmup percentage was hit.
system.cpu1.idle_fraction                    0.984486                       # Percentage of idle cycles
system.cpu1.interrupts.clk_domain.clock         16000                       # Clock period in ticks
system.cpu1.interrupts.pwrStateResidencyTicks::UNDEFINED 1721170568000                       # Cumulative time (in ticks) in various power states
system.cpu1.itb.rdAccesses                          0                       # TLB accesses on read requests
system.cpu1.itb.rdMisses                            0                       # TLB misses on read requests
system.cpu1.itb.walker.pwrStateResidencyTicks::UNDEFINED 1721170568000                       # Cumulative time (in ticks) in various power states
system.cpu1.itb.wrAccesses                    7637575                       # TLB accesses on write requests
system.cpu1.itb.wrMisses                          283                       # TLB misses on write requests
system.cpu1.not_idle_fraction                0.015514                       # Percentage of non-idle cycles
system.cpu1.numCycles                        26702703                       # number of cpu cycles simulated
system.cpu1.numWorkItemsCompleted                   0                       # number of work items this cpu completed
system.cpu1.numWorkItemsStarted                     0                       # number of work items this cpu started
system.cpu1.num_busy_cycles              414272.914470                       # Number of busy cycles
system.cpu1.num_cc_register_reads             4749339                       # number of times the CC registers were read
system.cpu1.num_cc_register_writes            3541090                       # number of times the CC registers were written
system.cpu1.num_conditional_control_insts       795867                       # number of instructions that are conditional controls
system.cpu1.num_fp_alu_accesses                 73417                       # Number of float alu accesses
system.cpu1.num_fp_insts                        73417                       # number of float instructions
system.cpu1.num_fp_register_reads              100729                       # number of times the floating registers were read
system.cpu1.num_fp_register_writes              53576                       # number of times the floating registers were written
system.cpu1.num_func_calls                      18274                       # number of times a function call or return occured
system.cpu1.num_idle_cycles              26288430.085530                       # Number of idle cycles
system.cpu1.num_int_alu_accesses             10989573                       # Number of integer alu accesses
system.cpu1.num_int_insts                    10989573                       # number of integer instructions
system.cpu1.num_int_register_reads           22870723                       # number of times the integer registers were read
system.cpu1.num_int_register_writes           8959437                       # number of times the integer registers were written
system.cpu1.num_load_insts                    2755555                       # Number of load instructions
system.cpu1.num_mem_refs                      3620179                       # number of memory refs
system.cpu1.num_store_insts                    864624                       # Number of store instructions
system.cpu1.num_vec_alu_accesses                    0                       # Number of vector alu accesses
system.cpu1.num_vec_insts                           0                       # number of vector instructions
system.cpu1.num_vec_register_reads                  0                       # number of times the vector registers were read
system.cpu1.num_vec_register_writes                 0                       # number of times the vector registers were written
system.cpu1.op_class::No_OpClass                19405      0.18%      0.18% # Class of executed instruction
system.cpu1.op_class::IntAlu                  7326923     66.35%     66.53% # Class of executed instruction
system.cpu1.op_class::IntMult                     415      0.00%     66.53% # Class of executed instruction
system.cpu1.op_class::IntDiv                    34769      0.31%     66.84% # Class of executed instruction
system.cpu1.op_class::FloatAdd                   2884      0.03%     66.87% # Class of executed instruction
system.cpu1.op_class::FloatCmp                      0      0.00%     66.87% # Class of executed instruction
system.cpu1.op_class::FloatCvt                   1344      0.01%     66.88% # Class of executed instruction
system.cpu1.op_class::FloatMult                     0      0.00%     66.88% # Class of executed instruction
system.cpu1.op_class::FloatMultAcc                  0      0.00%     66.88% # Class of executed instruction
system.cpu1.op_class::FloatDiv                      0      0.00%     66.88% # Class of executed instruction
system.cpu1.op_class::FloatMisc                     0      0.00%     66.88% # Class of executed instruction
system.cpu1.op_class::FloatSqrt                     0      0.00%     66.88% # Class of executed instruction
system.cpu1.op_class::SimdAdd                    6146      0.06%     66.94% # Class of executed instruction
system.cpu1.op_class::SimdAddAcc                    0      0.00%     66.94% # Class of executed instruction
system.cpu1.op_class::SimdAlu                   11116      0.10%     67.04% # Class of executed instruction
system.cpu1.op_class::SimdCmp                       0      0.00%     67.04% # Class of executed instruction
system.cpu1.op_class::SimdCvt                   12010      0.11%     67.15% # Class of executed instruction
system.cpu1.op_class::SimdMisc                   6520      0.06%     67.21% # Class of executed instruction
system.cpu1.op_class::SimdMult                      0      0.00%     67.21% # Class of executed instruction
system.cpu1.op_class::SimdMultAcc                   0      0.00%     67.21% # Class of executed instruction
system.cpu1.op_class::SimdShift                  1018      0.01%     67.22% # Class of executed instruction
system.cpu1.op_class::SimdShiftAcc                  0      0.00%     67.22% # Class of executed instruction
system.cpu1.op_class::SimdDiv                       0      0.00%     67.22% # Class of executed instruction
system.cpu1.op_class::SimdSqrt                      0      0.00%     67.22% # Class of executed instruction
system.cpu1.op_class::SimdFloatAdd                  0      0.00%     67.22% # Class of executed instruction
system.cpu1.op_class::SimdFloatAlu                  0      0.00%     67.22% # Class of executed instruction
system.cpu1.op_class::SimdFloatCmp                  0      0.00%     67.22% # Class of executed instruction
system.cpu1.op_class::SimdFloatCvt                  0      0.00%     67.22% # Class of executed instruction
system.cpu1.op_class::SimdFloatDiv                  0      0.00%     67.22% # Class of executed instruction
system.cpu1.op_class::SimdFloatMisc                 0      0.00%     67.22% # Class of executed instruction
system.cpu1.op_class::SimdFloatMult                 0      0.00%     67.22% # Class of executed instruction
system.cpu1.op_class::SimdFloatMultAcc              0      0.00%     67.22% # Class of executed instruction
system.cpu1.op_class::SimdFloatSqrt                 0      0.00%     67.22% # Class of executed instruction
system.cpu1.op_class::SimdReduceAdd                 0      0.00%     67.22% # Class of executed instruction
system.cpu1.op_class::SimdReduceAlu                 0      0.00%     67.22% # Class of executed instruction
system.cpu1.op_class::SimdReduceCmp                 0      0.00%     67.22% # Class of executed instruction
system.cpu1.op_class::SimdFloatReduceAdd            0      0.00%     67.22% # Class of executed instruction
system.cpu1.op_class::SimdFloatReduceCmp            0      0.00%     67.22% # Class of executed instruction
system.cpu1.op_class::SimdAes                       0      0.00%     67.22% # Class of executed instruction
system.cpu1.op_class::SimdAesMix                    0      0.00%     67.22% # Class of executed instruction
system.cpu1.op_class::SimdSha1Hash                  0      0.00%     67.22% # Class of executed instruction
system.cpu1.op_class::SimdSha1Hash2                 0      0.00%     67.22% # Class of executed instruction
system.cpu1.op_class::SimdSha256Hash                0      0.00%     67.22% # Class of executed instruction
system.cpu1.op_class::SimdSha256Hash2               0      0.00%     67.22% # Class of executed instruction
system.cpu1.op_class::SimdShaSigma2                 0      0.00%     67.22% # Class of executed instruction
system.cpu1.op_class::SimdShaSigma3                 0      0.00%     67.22% # Class of executed instruction
system.cpu1.op_class::SimdPredAlu                   0      0.00%     67.22% # Class of executed instruction
system.cpu1.op_class::MemRead                 2736247     24.78%     92.00% # Class of executed instruction
system.cpu1.op_class::MemWrite                 852271      7.72%     99.71% # Class of executed instruction
system.cpu1.op_class::FloatMemRead              19308      0.17%     99.89% # Class of executed instruction
system.cpu1.op_class::FloatMemWrite             12353      0.11%    100.00% # Class of executed instruction
system.cpu1.op_class::IprAccess                     0      0.00%    100.00% # Class of executed instruction
system.cpu1.op_class::InstPrefetch                  0      0.00%    100.00% # Class of executed instruction
system.cpu1.op_class::total                  11042729                       # Class of executed instruction
system.cpu1.pwrStateResidencyTicks::ON   1721170568000                       # Cumulative time (in ticks) in various power states
system.cpu1.workload.numSyscalls                   59                       # Number of system calls
system.cpu2.Branches                          1225834                       # Number of branches fetched
system.cpu2.committedInsts                    5971651                       # Number of instructions committed
system.cpu2.committedOps                     11042729                       # Number of ops (including micro ops) committed
system.cpu2.dcache.ReadReq_accesses::.cpu2.data      2755582                       # number of ReadReq accesses(hits+misses)
system.cpu2.dcache.ReadReq_accesses::total      2755582                       # number of ReadReq accesses(hits+misses)
system.cpu2.dcache.ReadReq_avg_miss_latency::.cpu2.data 111126.407181                       # average ReadReq miss latency
system.cpu2.dcache.ReadReq_avg_miss_latency::total 111126.407181                       # average ReadReq miss latency
system.cpu2.dcache.ReadReq_avg_mshr_miss_latency::.cpu2.data 109126.407181                       # average ReadReq mshr miss latency
system.cpu2.dcache.ReadReq_avg_mshr_miss_latency::total 109126.407181                       # average ReadReq mshr miss latency
system.cpu2.dcache.ReadReq_hits::.cpu2.data      2741991                       # number of ReadReq hits
system.cpu2.dcache.ReadReq_hits::total        2741991                       # number of ReadReq hits
system.cpu2.dcache.ReadReq_miss_latency::.cpu2.data   1510319000                       # number of ReadReq miss cycles
system.cpu2.dcache.ReadReq_miss_latency::total   1510319000                       # number of ReadReq miss cycles
system.cpu2.dcache.ReadReq_miss_rate::.cpu2.data     0.004932                       # miss rate for ReadReq accesses
system.cpu2.dcache.ReadReq_miss_rate::total     0.004932                       # miss rate for ReadReq accesses
system.cpu2.dcache.ReadReq_misses::.cpu2.data        13591                       # number of ReadReq misses
system.cpu2.dcache.ReadReq_misses::total        13591                       # number of ReadReq misses
system.cpu2.dcache.ReadReq_mshr_miss_latency::.cpu2.data   1483137000                       # number of ReadReq MSHR miss cycles
system.cpu2.dcache.ReadReq_mshr_miss_latency::total   1483137000                       # number of ReadReq MSHR miss cycles
system.cpu2.dcache.ReadReq_mshr_miss_rate::.cpu2.data     0.004932                       # mshr miss rate for ReadReq accesses
system.cpu2.dcache.ReadReq_mshr_miss_rate::total     0.004932                       # mshr miss rate for ReadReq accesses
system.cpu2.dcache.ReadReq_mshr_misses::.cpu2.data        13591                       # number of ReadReq MSHR misses
system.cpu2.dcache.ReadReq_mshr_misses::total        13591                       # number of ReadReq MSHR misses
system.cpu2.dcache.WriteReq_accesses::.cpu2.data       864634                       # number of WriteReq accesses(hits+misses)
system.cpu2.dcache.WriteReq_accesses::total       864634                       # number of WriteReq accesses(hits+misses)
system.cpu2.dcache.WriteReq_avg_miss_latency::.cpu2.data 66000.436229                       # average WriteReq miss latency
system.cpu2.dcache.WriteReq_avg_miss_latency::total 66000.436229                       # average WriteReq miss latency
system.cpu2.dcache.WriteReq_avg_mshr_miss_latency::.cpu2.data 64000.436229                       # average WriteReq mshr miss latency
system.cpu2.dcache.WriteReq_avg_mshr_miss_latency::total 64000.436229                       # average WriteReq mshr miss latency
system.cpu2.dcache.WriteReq_hits::.cpu2.data       827956                       # number of WriteReq hits
system.cpu2.dcache.WriteReq_hits::total        827956                       # number of WriteReq hits
system.cpu2.dcache.WriteReq_miss_latency::.cpu2.data   2420764000                       # number of WriteReq miss cycles
system.cpu2.dcache.WriteReq_miss_latency::total   2420764000                       # number of WriteReq miss cycles
system.cpu2.dcache.WriteReq_miss_rate::.cpu2.data     0.042420                       # miss rate for WriteReq accesses
system.cpu2.dcache.WriteReq_miss_rate::total     0.042420                       # miss rate for WriteReq accesses
system.cpu2.dcache.WriteReq_misses::.cpu2.data        36678                       # number of WriteReq misses
system.cpu2.dcache.WriteReq_misses::total        36678                       # number of WriteReq misses
system.cpu2.dcache.WriteReq_mshr_miss_latency::.cpu2.data   2347408000                       # number of WriteReq MSHR miss cycles
system.cpu2.dcache.WriteReq_mshr_miss_latency::total   2347408000                       # number of WriteReq MSHR miss cycles
system.cpu2.dcache.WriteReq_mshr_miss_rate::.cpu2.data     0.042420                       # mshr miss rate for WriteReq accesses
system.cpu2.dcache.WriteReq_mshr_miss_rate::total     0.042420                       # mshr miss rate for WriteReq accesses
system.cpu2.dcache.WriteReq_mshr_misses::.cpu2.data        36678                       # number of WriteReq MSHR misses
system.cpu2.dcache.WriteReq_mshr_misses::total        36678                       # number of WriteReq MSHR misses
system.cpu2.dcache.avg_blocked_cycles::no_mshrs          nan                       # average number of cycles each access was blocked
system.cpu2.dcache.avg_blocked_cycles::no_targets          nan                       # average number of cycles each access was blocked
system.cpu2.dcache.blocked::no_mshrs                0                       # number of cycles access was blocked
system.cpu2.dcache.blocked::no_targets              0                       # number of cycles access was blocked
system.cpu2.dcache.blocked_cycles::no_mshrs            0                       # number of cycles access was blocked
system.cpu2.dcache.blocked_cycles::no_targets            0                       # number of cycles access was blocked
system.cpu2.dcache.demand_accesses::.cpu2.data      3620216                       # number of demand (read+write) accesses
system.cpu2.dcache.demand_accesses::total      3620216                       # number of demand (read+write) accesses
system.cpu2.dcache.demand_avg_miss_latency::.cpu2.data 78200.938948                       # average overall miss latency
system.cpu2.dcache.demand_avg_miss_latency::total 78200.938948                       # average overall miss latency
system.cpu2.dcache.demand_avg_mshr_miss_latency::.cpu2.data 76200.938948                       # average overall mshr miss latency
system.cpu2.dcache.demand_avg_mshr_miss_latency::total 76200.938948                       # average overall mshr miss latency
system.cpu2.dcache.demand_hits::.cpu2.data      3569947                       # number of demand (read+write) hits
system.cpu2.dcache.demand_hits::total         3569947                       # number of demand (read+write) hits
system.cpu2.dcache.demand_miss_latency::.cpu2.data   3931083000                       # number of demand (read+write) miss cycles
system.cpu2.dcache.demand_miss_latency::total   3931083000                       # number of demand (read+write) miss cycles
system.cpu2.dcache.demand_miss_rate::.cpu2.data     0.013886                       # miss rate for demand accesses
system.cpu2.dcache.demand_miss_rate::total     0.013886                       # miss rate for demand accesses
system.cpu2.dcache.demand_misses::.cpu2.data        50269                       # number of demand (read+write) misses
system.cpu2.dcache.demand_misses::total         50269                       # number of demand (read+write) misses
system.cpu2.dcache.demand_mshr_miss_latency::.cpu2.data   3830545000                       # number of demand (read+write) MSHR miss cycles
system.cpu2.dcache.demand_mshr_miss_latency::total   3830545000                       # number of demand (read+write) MSHR miss cycles
system.cpu2.dcache.demand_mshr_miss_rate::.cpu2.data     0.013886                       # mshr miss rate for demand accesses
system.cpu2.dcache.demand_mshr_miss_rate::total     0.013886                       # mshr miss rate for demand accesses
system.cpu2.dcache.demand_mshr_misses::.cpu2.data        50269                       # number of demand (read+write) MSHR misses
system.cpu2.dcache.demand_mshr_misses::total        50269                       # number of demand (read+write) MSHR misses
system.cpu2.dcache.overall_accesses::.cpu2.data      3620216                       # number of overall (read+write) accesses
system.cpu2.dcache.overall_accesses::total      3620216                       # number of overall (read+write) accesses
system.cpu2.dcache.overall_avg_miss_latency::.cpu2.data 78200.938948                       # average overall miss latency
system.cpu2.dcache.overall_avg_miss_latency::total 78200.938948                       # average overall miss latency
system.cpu2.dcache.overall_avg_mshr_miss_latency::.cpu2.data 76200.938948                       # average overall mshr miss latency
system.cpu2.dcache.overall_avg_mshr_miss_latency::total 76200.938948                       # average overall mshr miss latency
system.cpu2.dcache.overall_hits::.cpu2.data      3569947                       # number of overall hits
system.cpu2.dcache.overall_hits::total        3569947                       # number of overall hits
system.cpu2.dcache.overall_miss_latency::.cpu2.data   3931083000                       # number of overall miss cycles
system.cpu2.dcache.overall_miss_latency::total   3931083000                       # number of overall miss cycles
system.cpu2.dcache.overall_miss_rate::.cpu2.data     0.013886                       # miss rate for overall accesses
system.cpu2.dcache.overall_miss_rate::total     0.013886                       # miss rate for overall accesses
system.cpu2.dcache.overall_misses::.cpu2.data        50269                       # number of overall misses
system.cpu2.dcache.overall_misses::total        50269                       # number of overall misses
system.cpu2.dcache.overall_mshr_miss_latency::.cpu2.data   3830545000                       # number of overall MSHR miss cycles
system.cpu2.dcache.overall_mshr_miss_latency::total   3830545000                       # number of overall MSHR miss cycles
system.cpu2.dcache.overall_mshr_miss_rate::.cpu2.data     0.013886                       # mshr miss rate for overall accesses
system.cpu2.dcache.overall_mshr_miss_rate::total     0.013886                       # mshr miss rate for overall accesses
system.cpu2.dcache.overall_mshr_misses::.cpu2.data        50269                       # number of overall MSHR misses
system.cpu2.dcache.overall_mshr_misses::total        50269                       # number of overall MSHR misses
system.cpu2.dcache.pwrStateResidencyTicks::UNDEFINED 1721170568000                       # Cumulative time (in ticks) in various power states
system.cpu2.dcache.replacements                 49245                       # number of replacements
system.cpu2.dcache.tags.age_task_id_blocks_1024::4         1024                       # Occupied blocks per task id
system.cpu2.dcache.tags.avg_refs            72.016869                       # Average number of references to valid blocks.
system.cpu2.dcache.tags.data_accesses         7290701                       # Number of data accesses
system.cpu2.dcache.tags.occ_blocks::.cpu2.data  1023.866371                       # Average occupied blocks per requestor
system.cpu2.dcache.tags.occ_percent::.cpu2.data     0.999870                       # Average percentage of cache occupancy
system.cpu2.dcache.tags.occ_percent::total     0.999870                       # Average percentage of cache occupancy
system.cpu2.dcache.tags.occ_task_id_blocks::1024         1024                       # Occupied blocks per task id
system.cpu2.dcache.tags.occ_task_id_percent::1024            1                       # Percentage of cache occupancy per task id
system.cpu2.dcache.tags.pwrStateResidencyTicks::UNDEFINED 1721170568000                       # Cumulative time (in ticks) in various power states
system.cpu2.dcache.tags.sampled_refs            50269                       # Sample count of references to valid blocks.
system.cpu2.dcache.tags.tag_accesses          7290701                       # Number of tag accesses
system.cpu2.dcache.tags.tagsinuse         1023.866371                       # Cycle average of tags in use
system.cpu2.dcache.tags.total_refs            3620216                       # Total number of references to valid blocks.
[...]
system.mem_ctrl.totQLat                  131452478567                       # Total ticks spent queuing
system.mem_ctrl.wrPerTurnAround::samples       587673                       # Writes before turning the bus around for reads
system.mem_ctrl.wrPerTurnAround::mean       17.933630                       # Writes before turning the bus around for reads
system.mem_ctrl.wrPerTurnAround::gmean      17.929252                       # Writes before turning the bus around for reads
system.mem_ctrl.wrPerTurnAround::stdev       0.384942                       # Writes before turning the bus around for reads
system.mem_ctrl.wrPerTurnAround::16             19557      3.33%      3.33% # Writes before turning the bus around for reads
system.mem_ctrl.wrPerTurnAround::17              3970      0.68%      4.00% # Writes before turning the bus around for reads
system.mem_ctrl.wrPerTurnAround::18            561349     95.52%     99.52% # Writes before turning the bus around for reads
system.mem_ctrl.wrPerTurnAround::19              1838      0.31%     99.84% # Writes before turning the bus around for reads
system.mem_ctrl.wrPerTurnAround::20               706      0.12%     99.96% # Writes before turning the bus around for reads
system.mem_ctrl.wrPerTurnAround::21               196      0.03%     99.99% # Writes before turning the bus around for reads
system.mem_ctrl.wrPerTurnAround::22                46      0.01%    100.00% # Writes before turning the bus around for reads
system.mem_ctrl.wrPerTurnAround::23                 9      0.00%    100.00% # Writes before turning the bus around for reads
system.mem_ctrl.wrPerTurnAround::24                 1      0.00%    100.00% # Writes before turning the bus around for reads
system.mem_ctrl.wrPerTurnAround::25                 1      0.00%    100.00% # Writes before turning the bus around for reads
system.mem_ctrl.wrPerTurnAround::total         587673                       # Writes before turning the bus around for reads
system.mem_ctrl.wrQLenPdf::0                        1                       # What write queue length does an incoming req see
system.mem_ctrl.wrQLenPdf::1                        1                       # What write queue length does an incoming req see
system.mem_ctrl.wrQLenPdf::2                        1                       # What write queue length does an incoming req see
system.mem_ctrl.wrQLenPdf::3                        1                       # What write queue length does an incoming req see
system.mem_ctrl.wrQLenPdf::4                        1                       # What write queue length does an incoming req see
system.mem_ctrl.wrQLenPdf::5                        1                       # What write queue length does an incoming req see
system.mem_ctrl.wrQLenPdf::6                        1                       # What write queue length does an incoming req see
system.mem_ctrl.wrQLenPdf::7                        1                       # What write queue length does an incoming req see
system.mem_ctrl.wrQLenPdf::8                        1                       # What write queue length does an incoming req see
system.mem_ctrl.wrQLenPdf::9                        1                       # What write queue length does an incoming req see
system.mem_ctrl.wrQLenPdf::10                       1                       # What write queue length does an incoming req see
system.mem_ctrl.wrQLenPdf::11                       1                       # What write queue length does an incoming req see
system.mem_ctrl.wrQLenPdf::12                       1                       # What write queue length does an incoming req see
system.mem_ctrl.wrQLenPdf::13                       1                       # What write queue length does an incoming req see
system.mem_ctrl.wrQLenPdf::14                       1                       # What write queue length does an incoming req see
system.mem_ctrl.wrQLenPdf::15                  561725                       # What write queue length does an incoming req see
system.mem_ctrl.wrQLenPdf::16                  568180                       # What write queue length does an incoming req see
system.mem_ctrl.wrQLenPdf::17                  586774                       # What write queue length does an incoming req see
system.mem_ctrl.wrQLenPdf::18                  587731                       # What write queue length does an incoming req see
system.mem_ctrl.wrQLenPdf::19                  587896                       # What write queue length does an incoming req see
system.mem_ctrl.wrQLenPdf::20                  588004                       # What write queue length does an incoming req see
system.mem_ctrl.wrQLenPdf::21                  587998                       # What write queue length does an incoming req see
system.mem_ctrl.wrQLenPdf::22                  588807                       # What write queue length does an incoming req see
system.mem_ctrl.wrQLenPdf::23                  590226                       # What write queue length does an incoming req see
system.mem_ctrl.wrQLenPdf::24                  588017                       # What write queue length does an incoming req see
system.mem_ctrl.wrQLenPdf::25                  588050                       # What write queue length does an incoming req see
system.mem_ctrl.wrQLenPdf::26                  588461                       # What write queue length does an incoming req see
system.mem_ctrl.wrQLenPdf::27                  587939                       # What write queue length does an incoming req see
system.mem_ctrl.wrQLenPdf::28                  587962                       # What write queue length does an incoming req see
system.mem_ctrl.wrQLenPdf::29                  588178                       # What write queue length does an incoming req see
system.mem_ctrl.wrQLenPdf::30                  587734                       # What write queue length does an incoming req see
system.mem_ctrl.wrQLenPdf::31                  587714                       # What write queue length does an incoming req see
system.mem_ctrl.wrQLenPdf::32                  587688                       # What write queue length does an incoming req see
system.mem_ctrl.wrQLenPdf::33                      32                       # What write queue length does an incoming req see
system.mem_ctrl.wrQLenPdf::34                       9                       # What write queue length does an incoming req see
system.mem_ctrl.wrQLenPdf::35                       1                       # What write queue length does an incoming req see
system.mem_ctrl.wrQLenPdf::36                       0                       # What write queue length does an incoming req see
system.mem_ctrl.wrQLenPdf::37                       0                       # What write queue length does an incoming req see
system.mem_ctrl.wrQLenPdf::38                       0                       # What write queue length does an incoming req see
system.mem_ctrl.wrQLenPdf::39                       0                       # What write queue length does an incoming req see
system.mem_ctrl.wrQLenPdf::40                       0                       # What write queue length does an incoming req see
system.mem_ctrl.wrQLenPdf::41                       0                       # What write queue length does an incoming req see
system.mem_ctrl.wrQLenPdf::42                       0                       # What write queue length does an incoming req see
system.mem_ctrl.wrQLenPdf::43                       0                       # What write queue length does an incoming req see
system.mem_ctrl.wrQLenPdf::44                       0                       # What write queue length does an incoming req see
system.mem_ctrl.wrQLenPdf::45                       0                       # What write queue length does an incoming req see
system.mem_ctrl.wrQLenPdf::46                       0                       # What write queue length does an incoming req see
system.mem_ctrl.wrQLenPdf::47                       0                       # What write queue length does an incoming req see
system.mem_ctrl.wrQLenPdf::48                       0                       # What write queue length does an incoming req see
system.mem_ctrl.wrQLenPdf::49                       0                       # What write queue length does an incoming req see
system.mem_ctrl.wrQLenPdf::50                       0                       # What write queue length does an incoming req see
system.mem_ctrl.wrQLenPdf::51                       0                       # What write queue length does an incoming req see
system.mem_ctrl.wrQLenPdf::52                       0                       # What write queue length does an incoming req see
system.mem_ctrl.wrQLenPdf::53                       0                       # What write queue length does an incoming req see
system.mem_ctrl.wrQLenPdf::54                       0                       # What write queue length does an incoming req see
system.mem_ctrl.wrQLenPdf::55                       0                       # What write queue length does an incoming req see
system.mem_ctrl.wrQLenPdf::56                       0                       # What write queue length does an incoming req see
system.mem_ctrl.wrQLenPdf::57                       0                       # What write queue length does an incoming req see
system.mem_ctrl.wrQLenPdf::58                       0                       # What write queue length does an incoming req see
system.mem_ctrl.wrQLenPdf::59                       0                       # What write queue length does an incoming req see
system.mem_ctrl.wrQLenPdf::60                       0                       # What write queue length does an incoming req see
system.mem_ctrl.wrQLenPdf::61                       0                       # What write queue length does an incoming req see
system.mem_ctrl.wrQLenPdf::62                       0                       # What write queue length does an incoming req see
system.mem_ctrl.wrQLenPdf::63                       0                       # What write queue length does an incoming req see
system.mem_ctrl.writeBursts                  10539141                       # Number of DRAM write bursts, including those merged in the write queue
system.mem_ctrl.writePktSize::0                     0                       # Write request sizes (log2)
system.mem_ctrl.writePktSize::1                     0                       # Write request sizes (log2)
system.mem_ctrl.writePktSize::2                     0                       # Write request sizes (log2)
system.mem_ctrl.writePktSize::3                     0                       # Write request sizes (log2)
system.mem_ctrl.writePktSize::4                     0                       # Write request sizes (log2)
system.mem_ctrl.writePktSize::5                     0                       # Write request sizes (log2)
system.mem_ctrl.writePktSize::6              10539141                       # Write request sizes (log2)
system.mem_ctrl.writeReqs                    10539141                       # Number of write requests accepted
system.mem_ctrl.writeRowHitRate                 88.73                       # Row buffer hit rate for writes
system.mem_ctrl.writeRowHits                  9351507                       # Number of row buffer hits during writes
system.mem_ctrl_0.actBackEnergy          407067836430                       # Energy for active background per rank (pJ)
system.mem_ctrl_0.actEnergy                8764571340                       # Energy for activate commands per rank (pJ)
system.mem_ctrl_0.actPowerDownEnergy                0                       # Energy for active power-down per rank (pJ)
system.mem_ctrl_0.averagePower             546.042359                       # Core power per rank (mW)
system.mem_ctrl_0.memoryStateTime::IDLE  813750000316                       # Time in different power states
system.mem_ctrl_0.memoryStateTime::REF    57473520000                       # Time in different power states
system.mem_ctrl_0.memoryStateTime::SREF             0                       # Time in different power states
system.mem_ctrl_0.memoryStateTime::PRE_PDN            0                       # Time in different power states
system.mem_ctrl_0.memoryStateTime::ACT   849947047684                       # Time in different power states
system.mem_ctrl_0.memoryStateTime::ACT_PDN            0                       # Time in different power states
system.mem_ctrl_0.preBackEnergy          318135530880                       # Energy for precharge background per rank (pJ)
system.mem_ctrl_0.preEnergy                4658461170                       # Energy for precharge commands per rank (pJ)
system.mem_ctrl_0.prePowerDownEnergy                0                       # Energy for precharge power-down per rank (pJ)
system.mem_ctrl_0.readEnergy              37831168620                       # Energy for read commands per rank (pJ)
system.mem_ctrl_0.refreshEnergy          135867401280.000015                       # Energy for refresh commands per rank (pJ)
system.mem_ctrl_0.selfRefreshEnergy                 0                       # Energy for self refresh per rank (pJ)
system.mem_ctrl_0.totalEnergy            939832036380                       # Total energy per rank (pJ)
system.mem_ctrl_0.totalIdleTime                     0                       # Total Idle time Per DRAM Rank
system.mem_ctrl_0.writeEnergy             27507066660                       # Energy for write commands per rank (pJ)
system.mem_ctrl_1.actBackEnergy          406988072340                       # Energy for active background per rank (pJ)
system.mem_ctrl_1.actEnergy                8754639600                       # Energy for activate commands per rank (pJ)
system.mem_ctrl_1.actPowerDownEnergy                0                       # Energy for active power-down per rank (pJ)
system.mem_ctrl_1.averagePower             546.026137                       # Core power per rank (mW)
system.mem_ctrl_1.memoryStateTime::IDLE  813926109795                       # Time in different power states
system.mem_ctrl_1.memoryStateTime::REF    57473520000                       # Time in different power states
system.mem_ctrl_1.memoryStateTime::SREF             0                       # Time in different power states
system.mem_ctrl_1.memoryStateTime::PRE_PDN            0                       # Time in different power states
system.mem_ctrl_1.memoryStateTime::ACT   849770938205                       # Time in different power states
system.mem_ctrl_1.memoryStateTime::ACT_PDN            0                       # Time in different power states
system.mem_ctrl_1.preBackEnergy          318202700640                       # Energy for precharge background per rank (pJ)
system.mem_ctrl_1.preEnergy                4653189915                       # Energy for precharge commands per rank (pJ)
system.mem_ctrl_1.prePowerDownEnergy                0                       # Energy for precharge power-down per rank (pJ)
system.mem_ctrl_1.readEnergy              37831025820                       # Energy for read commands per rank (pJ)
system.mem_ctrl_1.refreshEnergy          135867401280.000015                       # Energy for refresh commands per rank (pJ)
system.mem_ctrl_1.selfRefreshEnergy                 0                       # Energy for self refresh per rank (pJ)
system.mem_ctrl_1.totalEnergy            939804117135                       # Total energy per rank (pJ)
system.mem_ctrl_1.totalIdleTime                     0                       # Total Idle time Per DRAM Rank
system.mem_ctrl_1.writeEnergy             27507087540                       # Energy for write commands per rank (pJ)
system.membus.pkt_count_system.l2cache.mem_side::system.mem_ctrl.port     31784354                       # Packet count per connected master and slave (bytes)
system.membus.pkt_count_system.l2cache.mem_side::total     31784354                       # Packet count per connected master and slave (bytes)
system.membus.pkt_count::total               31784354                       # Packet count per connected master and slave (bytes)
system.membus.pkt_size_system.l2cache.mem_side::system.mem_ctrl.port   1352743488                       # Cumulative packet size per connected master and slave (bytes)
system.membus.pkt_size_system.l2cache.mem_side::total   1352743488                       # Cumulative packet size per connected master and slave (bytes)
system.membus.pkt_size::total              1352743488                       # Cumulative packet size per connected master and slave (bytes)
system.membus.pwrStateResidencyTicks::UNDEFINED 1721170568000                       # Cumulative time (in ticks) in various power states
system.membus.reqLayer8.occupancy         63401967416                       # Layer occupancy (ticks)
system.membus.reqLayer8.utilization               3.7                       # Layer utilization (%)
system.membus.respLayer0.occupancy        55802522576                       # Layer occupancy (ticks)
system.membus.respLayer0.utilization              3.2                       # Layer utilization (%)
system.membus.snoopTraffic                          0                       # Total snoop traffic (bytes)
system.membus.snoop_fanout::samples          10597476                       # Request fanout histogram
system.membus.snoop_fanout::mean                    0                       # Request fanout histogram
system.membus.snoop_fanout::stdev                   0                       # Request fanout histogram
system.membus.snoop_fanout::underflows              0      0.00%      0.00% # Request fanout histogram
system.membus.snoop_fanout::0                10597476    100.00%    100.00% # Request fanout histogram
system.membus.snoop_fanout::1                       0      0.00%    100.00% # Request fanout histogram
system.membus.snoop_fanout::overflows               0      0.00%    100.00% # Request fanout histogram
system.membus.snoop_fanout::min_value               0                       # Request fanout histogram
system.membus.snoop_fanout::max_value               0                       # Request fanout histogram
system.membus.snoop_fanout::total            10597476                       # Request fanout histogram
system.membus.snoop_filter.hit_multi_requests            0                       # Number of requests hitting in the snoop filter with multiple (>1) holders of the requested data.
system.membus.snoop_filter.hit_multi_snoops            0                       # Number of snoops hitting in the snoop filter with multiple (>1) holders of the requested data.
system.membus.snoop_filter.hit_single_requests     10589402                       # Number of requests hitting in the snoop filter with a single holder of the requested data.
system.membus.snoop_filter.hit_single_snoops            0                       # Number of snoops hitting in the snoop filter with a single holder of the requested data.
system.membus.snoop_filter.tot_requests      21186878                       # Total number of requests made to the snoop filter.
system.membus.snoop_filter.tot_snoops               0                       # Total number of snoops made to the snoop filter.
system.membus.snoops                                0                       # Total snoops (count)
system.membus.trans_dist::ReadResp           10541444                       # Transaction distribution
system.membus.trans_dist::WritebackDirty     10539141                       # Transaction distribution
system.membus.trans_dist::CleanEvict            50261                       # Transaction distribution
system.membus.trans_dist::ReadExReq             56032                       # Transaction distribution
system.membus.trans_dist::ReadExResp            56032                       # Transaction distribution
system.membus.trans_dist::ReadSharedReq      10541444                       # Transaction distribution

---------- End Simulation Statistics   ----------
