
---------- Begin Simulation Statistics ----------
final_tick                                26319248000                       # Number of ticks from beginning of simulation (restored from checkpoints and never reset)
host_inst_rate                                 380215                       # Simulator instruction rate (inst/s)
host_mem_usage                                 890632                       # Number of bytes of host memory used
host_op_rate                                   703088                       # Simulator op (including micro ops) rate (op/s)
host_seconds                                    62.82                       # Real time elapsed on the host
host_tick_rate                              418934722                       # Simulator tick rate (ticks/s)
sim_freq                                 1000000000000                       # Frequency of simulated ticks
sim_insts                                    23886604                       # Number of instructions simulated
sim_ops                                      44170916                       # Number of ops (including micro ops) simulated
sim_seconds                                  0.026319                       # Number of seconds simulated
sim_ticks                                 26319248000                       # Number of ticks simulated
system.clk_domain.clock                          1000                       # Clock period in ticks
system.clk_domain.voltage_domain.voltage            1                       # Voltage in Volts
system.cpu0.Branches                          1225834                       # Number of branches fetched
system.cpu0.committedInsts                    5971651                       # Number of instructions committed
system.cpu0.committedOps                     11042729                       # Number of ops (including micro ops) committed
system.cpu0.dcache.ReadReq_accesses::.cpu0.data      2755582                       # number of ReadReq accesses(hits+misses)
system.cpu0.dcache.ReadReq_accesses::total      2755582                       # number of ReadReq accesses(hits+misses)
system.cpu0.dcache.ReadReq_avg_miss_latency::.cpu0.data 104224.257970                       # average ReadReq miss latency
system.cpu0.dcache.ReadReq_avg_miss_latency::total 104224.257970                       # average ReadReq miss latency
system.cpu0.dcache.ReadReq_avg_mshr_miss_latency::.cpu0.data 102224.257970                       # average ReadReq mshr miss latency
system.cpu0.dcache.ReadReq_avg_mshr_miss_latency::total 102224.257970                       # average ReadReq mshr miss latency
system.cpu0.dcache.ReadReq_hits::.cpu0.data      2741937                       # number of ReadReq hits
system.cpu0.dcache.ReadReq_hits::total        2741937                       # number of ReadReq hits
system.cpu0.dcache.ReadReq_miss_latency::.cpu0.data   1422140000                       # number of ReadReq miss cycles
system.cpu0.dcache.ReadReq_miss_latency::total   1422140000                       # number of ReadReq miss cycles
system.cpu0.dcache.ReadReq_miss_rate::.cpu0.data     0.004952                       # miss rate for ReadReq accesses
system.cpu0.dcache.ReadReq_miss_rate::total     0.004952                       # miss rate for ReadReq accesses
system.cpu0.dcache.ReadReq_misses::.cpu0.data        13645                       # number of ReadReq misses
system.cpu0.dcache.ReadReq_misses::total        13645                       # number of ReadReq misses
system.cpu0.dcache.ReadReq_mshr_miss_latency::.cpu0.data   1394850000                       # number of ReadReq MSHR miss cycles
system.cpu0.dcache.ReadReq_mshr_miss_latency::total   1394850000                       # number of ReadReq MSHR miss cycles
system.cpu0.dcache.ReadReq_mshr_miss_rate::.cpu0.data     0.004952                       # mshr miss rate for ReadReq accesses
system.cpu0.dcache.ReadReq_mshr_miss_rate::total     0.004952                       # mshr miss rate for ReadReq accesses
system.cpu0.dcache.ReadReq_mshr_misses::.cpu0.data        13645                       # number of ReadReq MSHR misses
system.cpu0.dcache.ReadReq_mshr_misses::total        13645                       # number of ReadReq MSHR misses
system.cpu0.dcache.WriteReq_accesses::.cpu0.data       864634                       # number of WriteReq accesses(hits+misses)
system.cpu0.dcache.WriteReq_accesses::total       864634                       # number of WriteReq accesses(hits+misses)
system.cpu0.dcache.WriteReq_avg_miss_latency::.cpu0.data 61979.531765                       # average WriteReq miss latency
system.cpu0.dcache.WriteReq_avg_miss_latency::total 61979.531765                       # average WriteReq miss latency
system.cpu0.dcache.WriteReq_avg_mshr_miss_latency::.cpu0.data 59979.531765                       # average WriteReq mshr miss latency
system.cpu0.dcache.WriteReq_avg_mshr_miss_latency::total 59979.531765                       # average WriteReq mshr miss latency
system.cpu0.dcache.WriteReq_hits::.cpu0.data       827943                       # number of WriteReq hits
system.cpu0.dcache.WriteReq_hits::total        827943                       # number of WriteReq hits
system.cpu0.dcache.WriteReq_miss_latency::.cpu0.data   2274091000                       # number of WriteReq miss cycles
system.cpu0.dcache.WriteReq_miss_latency::total   2274091000                       # number of WriteReq miss cycles
system.cpu0.dcache.WriteReq_miss_rate::.cpu0.data     0.042435                       # miss rate for WriteReq accesses
system.cpu0.dcache.WriteReq_miss_rate::total     0.042435                       # miss rate for WriteReq accesses
system.cpu0.dcache.WriteReq_misses::.cpu0.data        36691                       # number of WriteReq misses
system.cpu0.dcache.WriteReq_misses::total        36691                       # number of WriteReq misses
system.cpu0.dcache.WriteReq_mshr_miss_latency::.cpu0.data   2200709000                       # number of WriteReq MSHR miss cycles
system.cpu0.dcache.WriteReq_mshr_miss_latency::total   2200709000                       # number of WriteReq MSHR miss cycles
system.cpu0.dcache.WriteReq_mshr_miss_rate::.cpu0.data     0.042435                       # mshr miss rate for WriteReq accesses
system.cpu0.dcache.WriteReq_mshr_miss_rate::total     0.042435                       # mshr miss rate for WriteReq accesses
system.cpu0.dcache.WriteReq_mshr_misses::.cpu0.data        36691                       # number of WriteReq MSHR misses
system.cpu0.dcache.WriteReq_mshr_misses::total        36691                       # number of WriteReq MSHR misses
system.cpu0.dcache.avg_blocked_cycles::no_mshrs          nan                       # average number of cycles each access was blocked
system.cpu0.dcache.avg_blocked_cycles::no_targets          nan                       # average number of cycles each access was blocked
system.cpu0.dcache.blocked::no_mshrs                0                       # number of cycles access was blocked
system.cpu0.dcache.blocked::no_targets              0                       # number of cycles access was blocked
system.cpu0.dcache.blocked_cycles::no_mshrs            0                       # number of cycles access was blocked
system.cpu0.dcache.blocked_cycles::no_targets            0                       # number of cycles access was blocked
system.cpu0.dcache.demand_accesses::.cpu0.data      3620216                       # number of demand (read+write) accesses
system.cpu0.dcache.demand_accesses::total      3620216                       # number of demand (read+write) accesses
system.cpu0.dcache.demand_avg_miss_latency::.cpu0.data 73431.162587                       # average overall miss latency
system.cpu0.dcache.demand_avg_miss_latency::total 73431.162587                       # average overall miss latency
system.cpu0.dcache.demand_avg_mshr_miss_latency::.cpu0.data 71431.162587                       # average overall mshr miss latency
system.cpu0.dcache.demand_avg_mshr_miss_latency::total 71431.162587                       # average overall mshr miss latency
system.cpu0.dcache.demand_hits::.cpu0.data      3569880                       # number of demand (read+write) hits
system.cpu0.dcache.demand_hits::total         3569880                       # number of demand (read+write) hits
system.cpu0.dcache.demand_miss_latency::.cpu0.data   3696231000                       # number of demand (read+write) miss cycles
system.cpu0.dcache.demand_miss_latency::total   3696231000                       # number of demand (read+write) miss cycles
system.cpu0.dcache.demand_miss_rate::.cpu0.data     0.013904                       # miss rate for demand accesses
system.cpu0.dcache.demand_miss_rate::total     0.013904                       # miss rate for demand accesses
system.cpu0.dcache.demand_misses::.cpu0.data        50336                       # number of demand (read+write) misses
system.cpu0.dcache.demand_misses::total         50336                       # number of demand (read+write) misses
system.cpu0.dcache.demand_mshr_miss_latency::.cpu0.data   3595559000                       # number of demand (read+write) MSHR miss cycles
system.cpu0.dcache.demand_mshr_miss_latency::total   3595559000                       # number of demand (read+write) MSHR miss cycles
system.cpu0.dcache.demand_mshr_miss_rate::.cpu0.data     0.013904                       # mshr miss rate for demand accesses
system.cpu0.dcache.demand_mshr_miss_rate::total     0.013904                       # mshr miss rate for demand accesses
system.cpu0.dcache.demand_mshr_misses::.cpu0.data        50336                       # number of demand (read+write) MSHR misses
system.cpu0.dcache.demand_mshr_misses::total        50336                       # number of demand (read+write) MSHR misses
system.cpu0.dcache.overall_accesses::.cpu0.data      3620216                       # number of overall (read+write) accesses
system.cpu0.dcache.overall_accesses::total      3620216                       # number of overall (read+write) accesses
system.cpu0.dcache.overall_avg_miss_latency::.cpu0.data 73431.162587                       # average overall miss latency
system.cpu0.dcache.overall_avg_miss_latency::total 73431.162587                       # average overall miss latency
system.cpu0.dcache.overall_avg_mshr_miss_latency::.cpu0.data 71431.162587                       # average overall mshr miss latency
system.cpu0.dcache.overall_avg_mshr_miss_latency::total 71431.162587                       # average overall mshr miss latency
system.cpu0.dcache.overall_hits::.cpu0.data      3569880                       # number of overall hits
system.cpu0.dcache.overall_hits::total        3569880                       # number of overall hits
system.cpu0.dcache.overall_miss_latency::.cpu0.data   3696231000                       # number of overall miss cycles
system.cpu0.dcache.overall_miss_latency::total   3696231000                       # number of overall miss cycles
system.cpu0.dcache.overall_miss_rate::.cpu0.data     0.013904                       # miss rate for overall accesses
system.cpu0.dcache.overall_miss_rate::total     0.013904                       # miss rate for overall accesses
system.cpu0.dcache.overall_misses::.cpu0.data        50336                       # number of overall misses
system.cpu0.dcache.overall_misses::total        50336                       # number of overall misses
system.cpu0.dcache.overall_mshr_miss_latency::.cpu0.data   3595559000                       # number of overall MSHR miss cycles
system.cpu0.dcache.overall_mshr_miss_latency::total   3595559000                       # number of overall MSHR miss cycles
system.cpu0.dcache.overall_mshr_miss_rate::.cpu0.data     0.013904                       # mshr miss rate for overall accesses
system.cpu0.dcache.overall_mshr_miss_rate::total     0.013904                       # mshr miss rate for overall accesses
system.cpu0.dcache.overall_mshr_misses::.cpu0.data        50336                       # number of overall MSHR misses
system.cpu0.dcache.overall_mshr_misses::total        50336                       # number of overall MSHR misses
system.cpu0.dcache.pwrStateResidencyTicks::UNDEFINED  26319248000                       # Cumulative time (in ticks) in various power states
system.cpu0.dcache.replacements                 49312                       # number of replacements
system.cpu0.dcache.tags.age_task_id_blocks_1024::0           21                       # Occupied blocks per task id
system.cpu0.dcache.tags.age_task_id_blocks_1024::1          204                       # Occupied blocks per task id
system.cpu0.dcache.tags.age_task_id_blocks_1024::2          431                       # Occupied blocks per task id
system.cpu0.dcache.tags.age_task_id_blocks_1024::3          274                       # Occupied blocks per task id
system.cpu0.dcache.tags.age_task_id_blocks_1024::4           94                       # Occupied blocks per task id
system.cpu0.dcache.tags.avg_refs            71.921011                       # Average number of references to valid blocks.
system.cpu0.dcache.tags.data_accesses         7290768                       # Number of data accesses
system.cpu0.dcache.tags.occ_blocks::.cpu0.data  1014.877998                       # Average occupied blocks per requestor
system.cpu0.dcache.tags.occ_percent::.cpu0.data     0.991092                       # Average percentage of cache occupancy
system.cpu0.dcache.tags.occ_percent::total     0.991092                       # Average percentage of cache occupancy
system.cpu0.dcache.tags.occ_task_id_blocks::1024         1024                       # Occupied blocks per task id
system.cpu0.dcache.tags.occ_task_id_percent::1024            1                       # Percentage of cache occupancy per task id
system.cpu0.dcache.tags.pwrStateResidencyTicks::UNDEFINED  26319248000                       # Cumulative time (in ticks) in various power states
system.cpu0.dcache.tags.sampled_refs            50336                       # Sample count of references to valid blocks.
system.cpu0.dcache.tags.tag_accesses          7290768                       # Number of tag accesses
system.cpu0.dcache.tags.tagsinuse         1014.877998                       # Cycle average of tags in use
system.cpu0.dcache.tags.total_refs            3620216                       # Total number of references to valid blocks.
system.cpu0.dcache.tags.warmup_cycle           218000                       # Cycle when the warmup percentage was hit.
system.cpu0.dcache.writebacks::.writebacks        37615                       # number of writebacks
system.cpu0.dcache.writebacks::total            37615                       # number of writebacks
system.cpu0.dtb.rdAccesses                    2755582                       # TLB accesses on read requests
system.cpu0.dtb.rdMisses                          904                       # TLB misses on read requests
system.cpu0.dtb.walker.pwrStateResidencyTicks::UNDEFINED  26319248000                       # Cumulative time (in ticks) in various power states
system.cpu0.dtb.wrAccesses                     864634                       # TLB accesses on write requests
system.cpu0.dtb.wrMisses                           93                       # TLB misses on write requests
system.cpu0.icache.ReadReq_accesses::.cpu0.inst      7637575                       # number of ReadReq accesses(hits+misses)
system.cpu0.icache.ReadReq_accesses::total      7637575                       # number of ReadReq accesses(hits+misses)
system.cpu0.icache.ReadReq_avg_miss_latency::.cpu0.inst 87697.818032                       # average ReadReq miss latency
system.cpu0.icache.ReadReq_avg_miss_latency::total 87697.818032                       # average ReadReq miss latency
system.cpu0.icache.ReadReq_avg_mshr_miss_latency::.cpu0.inst 85697.818032                       # average ReadReq mshr miss latency
system.cpu0.icache.ReadReq_avg_mshr_miss_latency::total 85697.818032                       # average ReadReq mshr miss latency
system.cpu0.icache.ReadReq_hits::.cpu0.inst      7635146                       # number of ReadReq hits
system.cpu0.icache.ReadReq_hits::total        7635146                       # number of ReadReq hits
system.cpu0.icache.ReadReq_miss_latency::.cpu0.inst    213018000                       # number of ReadReq miss cycles
system.cpu0.icache.ReadReq_miss_latency::total    213018000                       # number of ReadReq miss cycles
system.cpu0.icache.ReadReq_miss_rate::.cpu0.inst     0.000318                       # miss rate for ReadReq accesses
system.cpu0.icache.ReadReq_miss_rate::total     0.000318                       # miss rate for ReadReq accesses
system.cpu0.icache.ReadReq_misses::.cpu0.inst         2429                       # number of ReadReq misses
system.cpu0.icache.ReadReq_misses::total         2429                       # number of ReadReq misses
system.cpu0.icache.ReadReq_mshr_miss_latency::.cpu0.inst    208160000                       # number of ReadReq MSHR miss cycles
system.cpu0.icache.ReadReq_mshr_miss_latency::total    208160000                       # number of ReadReq MSHR miss cycles
system.cpu0.icache.ReadReq_mshr_miss_rate::.cpu0.inst     0.000318                       # mshr miss rate for ReadReq accesses
system.cpu0.icache.ReadReq_mshr_miss_rate::total     0.000318                       # mshr miss rate for ReadReq accesses
system.cpu0.icache.ReadReq_mshr_misses::.cpu0.inst         2429                       # number of ReadReq MSHR misses
system.cpu0.icache.ReadReq_mshr_misses::total         2429                       # number of ReadReq MSHR misses
system.cpu0.icache.avg_blocked_cycles::no_mshrs          nan                       # average number of cycles each access was blocked
system.cpu0.icache.avg_blocked_cycles::no_targets          nan                       # average number of cycles each access was blocked
system.cpu0.icache.blocked::no_mshrs                0                       # number of cycles access was blocked
system.cpu0.icache.blocked::no_targets              0                       # number of cycles access was blocked
system.cpu0.icache.blocked_cycles::no_mshrs            0                       # number of cycles access was blocked
system.cpu0.icache.blocked_cycles::no_targets            0                       # number of cycles access was blocked
system.cpu0.icache.demand_accesses::.cpu0.inst      7637575                       # number of demand (read+write) accesses
system.cpu0.icache.demand_accesses::total      7637575                       # number of demand (read+write) accesses
system.cpu0.icache.demand_avg_miss_latency::.cpu0.inst 87697.818032                       # average overall miss latency
system.cpu0.icache.demand_avg_miss_latency::total 87697.818032                       # average overall miss latency
system.cpu0.icache.demand_avg_mshr_miss_latency::.cpu0.inst 85697.818032                       # average overall mshr miss latency
system.cpu0.icache.demand_avg_mshr_miss_latency::total 85697.818032                       # average overall mshr miss latency
system.cpu0.icache.demand_hits::.cpu0.inst      7635146                       # number of demand (read+write) hits
system.cpu0.icache.demand_hits::total         7635146                       # number of demand (read+write) hits
system.cpu0.icache.demand_miss_latency::.cpu0.inst    213018000                       # number of demand (read+write) miss cycles
system.cpu0.icache.demand_miss_latency::total    213018000                       # number of demand (read+write) miss cycles
system.cpu0.icache.demand_miss_rate::.cpu0.inst     0.000318                       # miss rate for demand accesses
system.cpu0.icache.demand_miss_rate::total     0.000318                       # miss rate for demand accesses
system.cpu0.icache.demand_misses::.cpu0.inst         2429                       # number of demand (read+write) misses
system.cpu0.icache.demand_misses::total          2429                       # number of demand (read+write) misses
system.cpu0.icache.demand_mshr_miss_latency::.cpu0.inst    208160000                       # number of demand (read+write) MSHR miss cycles
system.cpu0.icache.demand_mshr_miss_latency::total    208160000                       # number of demand (read+write) MSHR miss cycles
system.cpu0.icache.demand_mshr_miss_rate::.cpu0.inst     0.000318                       # mshr miss rate for demand accesses
system.cpu0.icache.demand_mshr_miss_rate::total     0.000318                       # mshr miss rate for demand accesses
system.cpu0.icache.demand_mshr_misses::.cpu0.inst         2429                       # number of demand (read+write) MSHR misses
system.cpu0.icache.demand_mshr_misses::total         2429                       # number of demand (read+write) MSHR misses
system.cpu0.icache.overall_accesses::.cpu0.inst      7637575                       # number of overall (read+write) accesses
system.cpu0.icache.overall_accesses::total      7637575                       # number of overall (read+write) accesses
system.cpu0.icache.overall_avg_miss_latency::.cpu0.inst 87697.818032                       # average overall miss latency
system.cpu0.icache.overall_avg_miss_latency::total 87697.818032                       # average overall miss latency
system.cpu0.icache.overall_avg_mshr_miss_latency::.cpu0.inst 85697.818032                       # average overall mshr miss latency
system.cpu0.icache.overall_avg_mshr_miss_latency::total 85697.818032                       # average overall mshr miss latency
system.cpu0.icache.overall_hits::.cpu0.inst      7635146                       # number of overall hits
system.cpu0.icache.overall_hits::total        7635146                       # number of overall hits
system.cpu0.icache.overall_miss_latency::.cpu0.inst    213018000                       # number of overall miss cycles
system.cpu0.icache.overall_miss_latency::total    213018000                       # number of overall miss cycles
system.cpu0.icache.overall_miss_rate::.cpu0.inst     0.000318                       # miss rate for overall accesses
system.cpu0.icache.overall_miss_rate::total     0.000318                       # miss rate for overall accesses
system.cpu0.icache.overall_misses::.cpu0.inst         2429                       # number of overall misses
system.cpu0.icache.overall_misses::total         2429                       # number of overall misses
system.cpu0.icache.overall_mshr_miss_latency::.cpu0.inst    208160000                       # number of overall MSHR miss cycles
system.cpu0.icache.overall_mshr_miss_latency::total    208160000                       # number of overall MSHR miss cycles
system.cpu0.icache.overall_mshr_miss_rate::.cpu0.inst     0.000318                       # mshr miss rate for overall accesses
system.cpu0.icache.overall_mshr_miss_rate::total     0.000318                       # mshr miss rate for overall accesses
system.cpu0.icache.overall_mshr_misses::.cpu0.inst         2429                       # number of overall MSHR misses
system.cpu0.icache.overall_mshr_misses::total         2429                       # number of overall MSHR misses
system.cpu0.icache.pwrStateResidencyTicks::UNDEFINED  26319248000                       # Cumulative time (in ticks) in various power states
system.cpu0.icache.replacements                  2173                       # number of replacements
system.cpu0.icache.tags.age_task_id_blocks_1024::0           46                       # Occupied blocks per task id
system.cpu0.icache.tags.age_task_id_blocks_1024::1          104                       # Occupied blocks per task id
system.cpu0.icache.tags.age_task_id_blocks_1024::2           23                       # Occupied blocks per task id
system.cpu0.icache.tags.age_task_id_blocks_1024::3            1                       # Occupied blocks per task id
system.cpu0.icache.tags.age_task_id_blocks_1024::4           82                       # Occupied blocks per task id
system.cpu0.icache.tags.avg_refs          3144.328942                       # Average number of references to valid blocks.
system.cpu0.icache.tags.data_accesses        15277579                       # Number of data accesses
system.cpu0.icache.tags.occ_blocks::.cpu0.inst   254.911335                       # Average occupied blocks per requestor
system.cpu0.icache.tags.occ_percent::.cpu0.inst     0.995747                       # Average percentage of cache occupancy
system.cpu0.icache.tags.occ_percent::total     0.995747                       # Average percentage of cache occupancy
system.cpu0.icache.tags.occ_task_id_blocks::1024          256                       # Occupied blocks per task id
system.cpu0.icache.tags.occ_task_id_percent::1024            1                       # Percentage of cache occupancy per task id
system.cpu0.icache.tags.pwrStateResidencyTicks::UNDEFINED  26319248000                       # Cumulative time (in ticks) in various power states
system.cpu0.icache.tags.sampled_refs             2429                       # Sample count of references to valid blocks.
system.cpu0.icache.tags.tag_accesses         15277579                       # Number of tag accesses
system.cpu0.icache.tags.tagsinuse          254.911335                       # Cycle average of tags in use
system.cpu0.icache.tags.total_refs            7637575                       # Total number of references to valid blocks.
system.cpu0.icache.tags.warmup_cycle           107000                       # Cycle when the warmup percentage was hit.
system.cpu0.idle_fraction                    0.000000                       # Percentage of idle cycles
system.cpu0.interrupts.clk_domain.clock         16000                       # Clock period in ticks
system.cpu0.interrupts.pwrStateResidencyTicks::UNDEFINED  26319248000                       # Cumulative time (in ticks) in various power states
system.cpu0.itb.rdAccesses                          0                       # TLB accesses on read requests
system.cpu0.itb.rdMisses                            0                       # TLB misses on read requests
system.cpu0.itb.walker.pwrStateResidencyTicks::UNDEFINED  26319248000                       # Cumulative time (in ticks) in various power states
system.cpu0.itb.wrAccesses                    7637575                       # TLB accesses on write requests
system.cpu0.itb.wrMisses                          290                       # TLB misses on write requests
system.cpu0.not_idle_fraction                1.000000                       # Percentage of non-idle cycles
system.cpu0.numCycles                        26319248                       # number of cpu cycles simulated
system.cpu0.numWorkItemsCompleted                   0                       # number of work items this cpu completed
system.cpu0.numWorkItemsStarted                     0                       # number of work items this cpu started
system.cpu0.num_busy_cycles              26319247.999000                       # Number of busy cycles
system.cpu0.num_cc_register_reads             4749339                       # number of times the CC registers were read
system.cpu0.num_cc_register_writes            3541090                       # number of times the CC registers were written
system.cpu0.num_conditional_control_insts       795867                       # number of instructions that are conditional controls
system.cpu0.num_fp_alu_accesses                 73417                       # Number of float alu accesses
system.cpu0.num_fp_insts                        73417                       # number of float instructions
system.cpu0.num_fp_register_reads              100729                       # number of times the floating registers were read
system.cpu0.num_fp_register_writes              53576                       # number of times the floating registers were written
system.cpu0.num_func_calls                      18274                       # number of times a function call or return occured
system.cpu0.num_idle_cycles                  0.001000                       # Number of idle cycles
system.cpu0.num_int_alu_accesses             10989573                       # Number of integer alu accesses
system.cpu0.num_int_insts                    10989573                       # number of integer instructions
system.cpu0.num_int_register_reads           22870723                       # number of times the integer registers were read
system.cpu0.num_int_register_writes           8959437                       # number of times the integer registers were written
system.cpu0.num_load_insts                    2755555                       # Number of load instructions
system.cpu0.num_mem_refs                      3620179                       # number of memory refs
system.cpu0.num_store_insts                    864624                       # Number of store instructions
system.cpu0.num_vec_alu_accesses                    0                       # Number of vector alu accesses
system.cpu0.num_vec_insts                           0                       # number of vector instructions
system.cpu0.num_vec_register_reads                  0                       # number of times the vector registers were read
system.cpu0.num_vec_register_writes                 0                       # number of times the vector registers were written
system.cpu0.op_class::No_OpClass                19405      0.18%      0.18% # Class of executed instruction
system.cpu0.op_class::IntAlu                  7326923     66.35%     66.53% # Class of executed instruction
system.cpu0.op_class::IntMult                     415      0.00%     66.53% # Class of executed instruction
system.cpu0.op_class::IntDiv                    34769      0.31%     66.84% # Class of executed instruction
system.cpu0.op_class::FloatAdd                   2884      0.03%     66.87% # Class of executed instruction
system.cpu0.op_class::FloatCmp                      0      0.00%     66.87% # Class of executed instruction
system.cpu0.op_class::FloatCvt                   1344      0.01%     66.88% # Class of executed instruction
system.cpu0.op_class::FloatMult                     0      0.00%     66.88% # Class of executed instruction
system.cpu0.op_class::FloatMultAcc                  0      0.00%     66.88% # Class of executed instruction
system.cpu0.op_class::FloatDiv                      0      0.00%     66.88% # Class of executed instruction
system.cpu0.op_class::FloatMisc                     0      0.00%     66.88% # Class of executed instruction
system.cpu0.op_class::FloatSqrt                     0      0.00%     66.88% # Class of executed instruction
system.cpu0.op_class::SimdAdd                    6146      0.06%     66.94% # Class of executed instruction
system.cpu0.op_class::SimdAddAcc                    0      0.00%     66.94% # Class of executed instruction
system.cpu0.op_class::SimdAlu                   11116      0.10%     67.04% # Class of executed instruction
system.cpu0.op_class::SimdCmp                       0      0.00%     67.04% # Class of executed instruction
system.cpu0.op_class::SimdCvt                   12010      0.11%     67.15% # Class of executed instruction
system.cpu0.op_class::SimdMisc                   6520      0.06%     67.21% # Class of executed instruction
system.cpu0.op_class::SimdMult                      0      0.00%     67.21% # Class of executed instruction
system.cpu0.op_class::SimdMultAcc                   0      0.00%     67.21% # Class of executed instruction
system.cpu0.op_class::SimdShift                  1018      0.01%     67.22% # Class of executed instruction
system.cpu0.op_class::SimdShiftAcc                  0      0.00%     67.22% # Class of executed instruction
system.cpu0.op_class::SimdDiv                       0      0.00%     67.22% # Class of executed instruction
system.cpu0.op_class::SimdSqrt                      0      0.00%     67.22% # Class of executed instruction
system.cpu0.op_class::SimdFloatAdd                  0      0.00%     67.22% # Class of executed instruction
system.cpu0.op_class::SimdFloatAlu                  0      0.00%     67.22% # Class of executed instruction
system.cpu0.op_class::SimdFloatCmp                  0      0.00%     67.22% # Class of executed instruction
system.cpu0.op_class::SimdFloatCvt                  0      0.00%     67.22% # Class of executed instruction
system.cpu0.op_class::SimdFloatDiv                  0      0.00%     67.22% # Class of executed instruction
system.cpu0.op_class::SimdFloatMisc                 0      0.00%     67.22% # Class of executed instruction
system.cpu0.op_class::SimdFloatMult                 0      0.00%     67.22% # Class of executed instruction
system.cpu0.op_class::SimdFloatMultAcc              0      0.00%     67.22% # Class of executed instruction
system.cpu0.op_class::SimdFloatSqrt                 0      0.00%     67.22% # Class of executed instruction
system.cpu0.op_class::SimdReduceAdd                 0      0.00%     67.22% # Class of executed instruction
system.cpu0.op_class::SimdReduceAlu                 0      0.00%     67.22% # Class of executed instruction
system.cpu0.op_class::SimdReduceCmp                 0      0.00%     67.22% # Class of executed instruction
system.cpu0.op_class::SimdFloatReduceAdd            0      0.00%     67.22% # Class of executed instruction
system.cpu0.op_class::SimdFloatReduceCmp            0      0.00%     67.22% # Class of executed instruction
system.cpu0.op_class::SimdAes                       0      0.00%     67.22% # Class of executed instruction
system.cpu0.op_class::SimdAesMix                    0      0.00%     67.22% # Class of executed instruction
system.cpu0.op_class::SimdSha1Hash                  0      0.00%     67.22% # Class of executed instruction
system.cpu0.op_class::SimdSha1Hash2                 0      0.00%     67.22% # Class of executed instruction
system.cpu0.op_class::SimdSha256Hash                0      0.00%     67.22% # Class of executed instruction
system.cpu0.op_class::SimdSha256Hash2               0      0.00%     67.22% # Class of executed instruction
system.cpu0.op_class::SimdShaSigma2                 0      0.00%     67.22% # Class of executed instruction
system.cpu0.op_class::SimdShaSigma3                 0      0.00%     67.22% # Class of executed instruction
system.cpu0.op_class::SimdPredAlu                   0      0.00%     67.22% # Class of executed instruction
system.cpu0.op_class::MemRead                 2736247     24.78%     92.00% # Class of executed instruction
system.cpu0.op_class::MemWrite                 852271      7.72%     99.71% # Class of executed instruction
system.cpu0.op_class::FloatMemRead              19308      0.17%     99.89% # Class of executed instruction
system.cpu0.op_class::FloatMemWrite             12353      0.11%    100.00% # Class of executed instruction
system.cpu0.op_class::IprAccess                     0      0.00%    100.00% # Class of executed instruction
system.cpu0.op_class::InstPrefetch                  0      0.00%    100.00% # Class of executed instruction
system.cpu0.op_class::total                  11042729                       # Class of executed instruction
system.cpu0.pwrStateResidencyTicks::ON    26319248000                       # Cumulative time (in ticks) in various power states
system.cpu0.workload.numSyscalls                   59                       # Number of system calls
system.cpu1.Branches                          1225834                       # Number of branches fetched
system.cpu1.committedInsts                    5971651                       # Number of instructions committed
system.cpu1.committedOps                     11042729                       # Number of ops (including micro ops) committed
system.cpu1.dcache.ReadReq_accesses::.cpu1.data      2755582                       # number of ReadReq accesses(hits+misses)
system.cpu1.dcache.ReadReq_accesses::total      2755582                       # number of ReadReq accesses(hits+misses)
system.cpu1.dcache.ReadReq_avg_miss_latency::.cpu1.data 103161.591822                       # average ReadReq miss latency
system.cpu1.dcache.ReadReq_avg_miss_latency::total 103161.591822                       # average ReadReq miss latency
system.cpu1.dcache.ReadReq_avg_mshr_miss_latency::.cpu1.data 101161.591822                       # average ReadReq mshr miss latency
system.cpu1.dcache.ReadReq_avg_mshr_miss_latency::total 101161.591822                       # average ReadReq mshr miss latency
system.cpu1.dcache.ReadReq_hits::.cpu1.data      2741887                       # number of ReadReq hits
system.cpu1.dcache.ReadReq_hits::total        2741887                       # number of ReadReq hits
system.cpu1.dcache.ReadReq_miss_latency::.cpu1.data   1412798000                       # number of ReadReq miss cycles
system.cpu1.dcache.ReadReq_miss_latency::total   1412798000                       # number of ReadReq miss cycles
system.cpu1.dcache.ReadReq_miss_rate::.cpu1.data     0.004970                       # miss rate for ReadReq accesses
system.cpu1.dcache.ReadReq_miss_rate::total     0.004970                       # miss rate for ReadReq accesses
system.cpu1.dcache.ReadReq_misses::.cpu1.data        13695                       # number of ReadReq misses
system.cpu1.dcache.ReadReq_misses::total        13695                       # number of ReadReq misses
system.cpu1.dcache.ReadReq_mshr_miss_latency::.cpu1.data   1385408000                       # number of ReadReq MSHR miss cycles
system.cpu1.dcache.ReadReq_mshr_miss_latency::total   1385408000                       # number of ReadReq MSHR miss cycles
system.cpu1.dcache.ReadReq_mshr_miss_rate::.cpu1.data     0.004970                       # mshr miss rate for ReadReq accesses
system.cpu1.dcache.ReadReq_mshr_miss_rate::total     0.004970                       # mshr miss rate for ReadReq accesses
system.cpu1.dcache.ReadReq_mshr_misses::.cpu1.data        13695                       # number of ReadReq MSHR misses
system.cpu1.dcache.ReadReq_mshr_misses::total        13695                       # number of ReadReq MSHR misses
system.cpu1.dcache.WriteReq_accesses::.cpu1.data       864634                       # number of WriteReq accesses(hits+misses)
system.cpu1.dcache.WriteReq_accesses::total       864634                       # number of WriteReq accesses(hits+misses)
system.cpu1.dcache.WriteReq_avg_miss_latency::.cpu1.data 61724.499289                       # average WriteReq miss latency
system.cpu1.dcache.WriteReq_avg_miss_latency::total 61724.499289                       # average WriteReq miss latency
system.cpu1.dcache.WriteReq_avg_mshr_miss_latency::.cpu1.data 59724.499289                       # average WriteReq mshr miss latency
system.cpu1.dcache.WriteReq_avg_mshr_miss_latency::total 59724.499289                       # average WriteReq mshr miss latency
system.cpu1.dcache.WriteReq_hits::.cpu1.data       828086                       # number of WriteReq hits
system.cpu1.dcache.WriteReq_hits::total        828086                       # number of WriteReq hits
system.cpu1.dcache.WriteReq_miss_latency::.cpu1.data   2255907000                       # number of WriteReq miss cycles
system.cpu1.dcache.WriteReq_miss_latency::total   2255907000                       # number of WriteReq miss cycles
system.cpu1.dcache.WriteReq_miss_rate::.cpu1.data     0.042270                       # miss rate for WriteReq accesses
system.cpu1.dcache.WriteReq_miss_rate::total     0.042270                       # miss rate for WriteReq accesses
system.cpu1.dcache.WriteReq_misses::.cpu1.data        36548                       # number of WriteReq misses
system.cpu1.dcache.WriteReq_misses::total        36548                       # number of WriteReq misses
system.cpu1.dcache.WriteReq_mshr_miss_latency::.cpu1.data   2182811000                       # number of WriteReq MSHR miss cycles
system.cpu1.dcache.WriteReq_mshr_miss_latency::total   2182811000                       # number of WriteReq MSHR miss cycles
system.cpu1.dcache.WriteReq_mshr_miss_rate::.cpu1.data     0.042270                       # mshr miss rate for WriteReq accesses
system.cpu1.dcache.WriteReq_mshr_miss_rate::total     0.042270                       # mshr miss rate for WriteReq accesses
system.cpu1.dcache.WriteReq_mshr_misses::.cpu1.data        36548                       # number of WriteReq MSHR misses
system.cpu1.dcache.WriteReq_mshr_misses::total        36548                       # number of WriteReq MSHR misses
system.cpu1.dcache.avg_blocked_cycles::no_mshrs          nan                       # average number of cycles each access was blocked
system.cpu1.dcache.avg_blocked_cycles::no_targets          nan                       # average number of cycles each access was blocked
system.cpu1.dcache.blocked::no_mshrs                0                       # number of cycles access was blocked
system.cpu1.dcache.blocked::no_targets              0                       # number of cycles access was blocked
system.cpu1.dcache.blocked_cycles::no_mshrs            0                       # number of cycles access was blocked
system.cpu1.dcache.blocked_cycles::no_targets            0                       # number of cycles access was blocked
system.cpu1.dcache.demand_accesses::.cpu1.data      3620216                       # number of demand (read+write) accesses
system.cpu1.dcache.demand_accesses::total      3620216                       # number of demand (read+write) accesses
system.cpu1.dcache.demand_avg_miss_latency::.cpu1.data 73019.226559                       # average overall miss latency
system.cpu1.dcache.demand_avg_miss_latency::total 73019.226559                       # average overall miss latency
system.cpu1.dcache.demand_avg_mshr_miss_latency::.cpu1.data 71019.226559                       # average overall mshr miss latency
system.cpu1.dcache.demand_avg_mshr_miss_latency::total 71019.226559                       # average overall mshr miss latency
system.cpu1.dcache.demand_hits::.cpu1.data      3569973                       # number of demand (read+write) hits
system.cpu1.dcache.demand_hits::total         3569973                       # number of demand (read+write) hits
system.cpu1.dcache.demand_miss_latency::.cpu1.data   3668705000                       # number of demand (read+write) miss cycles
system.cpu1.dcache.demand_miss_latency::total   3668705000                       # number of demand (read+write) miss cycles
system.cpu1.dcache.demand_miss_rate::.cpu1.data     0.013878                       # miss rate for demand accesses
system.cpu1.dcache.demand_miss_rate::total     0.013878                       # miss rate for demand accesses
system.cpu1.dcache.demand_misses::.cpu1.data        50243                       # number of demand (read+write) misses
system.cpu1.dcache.demand_misses::total         50243                       # number of demand (read+write) misses
system.cpu1.dcache.demand_mshr_miss_latency::.cpu1.data   3568219000                       # number of demand (read+write) MSHR miss cycles
system.cpu1.dcache.demand_mshr_miss_latency::total   3568219000                       # number of demand (read+write) MSHR miss cycles
system.cpu1.dcache.demand_mshr_miss_rate::.cpu1.data     0.013878                       # mshr miss rate for demand accesses
system.cpu1.dcache.demand_mshr_miss_rate::total     0.013878                       # mshr miss rate for demand accesses
system.cpu1.dcache.demand_mshr_misses::.cpu1.data        50243                       # number of demand (read+write) MSHR misses
system.cpu1.dcache.demand_mshr_misses::total        50243                       # number of demand (read+write) MSHR misses
system.cpu1.dcache.overall_accesses::.cpu1.data      3620216                       # number of overall (read+write) accesses
system.cpu1.dcache.overall_accesses::total      3620216                       # number of overall (read+write) accesses
system.cpu1.dcache.overall_avg_miss_latency::.cpu1.data 73019.226559                       # average overall miss latency
system.cpu1.dcache.overall_avg_miss_latency::total 73019.226559                       # average overall miss latency
system.cpu1.dcache.overall_avg_mshr_miss_latency::.cpu1.data 71019.226559                       # average overall mshr miss latency
system.cpu1.dcache.overall_avg_mshr_miss_latency::total 71019.226559                       # average overall mshr miss latency
system.cpu1.dcache.overall_hits::.cpu1.data      3569973                       # number of overall hits
system.cpu1.dcache.overall_hits::total        3569973                       # number of overall hits
system.cpu1.dcache.overall_miss_latency::.cpu1.data   3668705000                       # number of overall miss cycles
system.cpu1.dcache.overall_miss_latency::total   3668705000                       # number of overall miss cycles
system.cpu1.dcache.overall_miss_rate::.cpu1.data     0.013878                       # miss rate for overall accesses
system.cpu1.dcache.overall_miss_rate::total     0.013878                       # miss rate for overall accesses
system.cpu1.dcache.overall_misses::.cpu1.data        50243                       # number of overall misses
system.cpu1.dcache.overall_misses::total        50243                       # number of overall misses
system.cpu1.dcache.overall_mshr_miss_latency::.cpu1.data   3568219000                       # number of overall MSHR miss cycles
system.cpu1.dcache.overall_mshr_miss_latency::total   3568219000                       # number of overall MSHR miss cycles
system.cpu1.dcache.overall_mshr_miss_rate::.cpu1.data     0.013878                       # mshr miss rate for overall accesses
system.cpu1.dcache.overall_mshr_miss_rate::total     0.013878                       # mshr miss rate for overall accesses
system.cpu1.dcache.overall_mshr_misses::.cpu1.data        50243                       # number of overall MSHR misses
system.cpu1.dcache.overall_mshr_misses::total        50243                       # number of overall MSHR misses
system.cpu1.dcache.pwrStateResidencyTicks::UNDEFINED  26319248000                       # Cumulative time (in ticks) in various power states
system.cpu1.dcache.replacements                 49219                       # number of replacements
system.cpu1.dcache.tags.age_task_id_blocks_1024::1          169                       # Occupied blocks per task id
system.cpu1.dcache.tags.age_task_id_blocks_1024::2          454                       # Occupied blocks per task id
system.cpu1.dcache.tags.age_task_id_blocks_1024::3          327                       # Occupied blocks per task id
system.cpu1.dcache.tags.age_task_id_blocks_1024::4           74                       # Occupied blocks per task id
system.cpu1.dcache.tags.avg_refs            72.054137                       # Average number of references to valid blocks.
system.cpu1.dcache.tags.data_accesses         7290675                       # Number of data accesses
system.cpu1.dcache.tags.occ_blocks::.cpu1.data  1015.014959                       # Average occupied blocks per requestor
system.cpu1.dcache.tags.occ_percent::.cpu1.data     0.991226                       # Average percentage of cache occupancy
system.cpu1.dcache.tags.occ_percent::total     0.991226                       # Average percentage of cache occupancy
system.cpu1.dcache.tags.occ_task_id_blocks::1024         1024                       # Occupied blocks per task id
system.cpu1.dcache.tags.occ_task_id_percent::1024            1                       # Percentage of cache occupancy per task id
system.cpu1.dcache.tags.pwrStateResidencyTicks::UNDEFINED  26319248000                       # Cumulative time (in ticks) in various power states
system.cpu1.dcache.tags.sampled_refs            50243                       # Sample count of references to valid blocks.
system.cpu1.dcache.tags.tag_accesses          7290675                       # Number of tag accesses
system.cpu1.dcache.tags.tagsinuse         1015.014959                       # Cycle average of tags in use
system.cpu1.dcache.tags.total_refs            3620216                       # Total number of references to valid blocks.
system.cpu1.dcache.tags.warmup_cycle           225000                       # Cycle when the warmup percentage was hit.
system.cpu1.dcache.writebacks::.writebacks        37529                       # number of writebacks
system.cpu1.dcache.writebacks::total            37529                       # number of writebacks
system.cpu1.dtb.rdAccesses                    2755582                       # TLB accesses on read requests
system.cpu1.dtb.rdMisses                          908                       # TLB misses on read requests
system.cpu1.dtb.walker.pwrStateResidencyTicks::UNDEFINED  26319248000                       # Cumulative time (in ticks) in various power states
system.cpu1.dtb.wrAccesses                     864634                       # TLB accesses on write requests
system.cpu1.dtb.wrMisses                           91                       # TLB misses on write requests
system.cpu1.icache.ReadReq_accesses::.cpu1.inst      7637575                       # number of ReadReq accesses(hits+misses)
system.cpu1.icache.ReadReq_accesses::total      7637575                       # number of ReadReq accesses(hits+misses)
system.cpu1.icache.ReadReq_avg_miss_latency::.cpu1.inst 86076.260763                       # average ReadReq miss latency
system.cpu1.icache.ReadReq_avg_miss_latency::total 86076.260763                       # average ReadReq miss latency
system.cpu1.icache.ReadReq_avg_mshr_miss_latency::.cpu1.inst 84076.260763                       # average ReadReq mshr miss latency
system.cpu1.icache.ReadReq_avg_mshr_miss_latency::total 84076.260763                       # average ReadReq mshr miss latency
system.cpu1.icache.ReadReq_hits::.cpu1.inst      7635136                       # number of ReadReq hits
system.cpu1.icache.ReadReq_hits::total        7635136                       # number of ReadReq hits
system.cpu1.icache.ReadReq_miss_latency::.cpu1.inst    209940000                       # number of ReadReq miss cycles
system.cpu1.icache.ReadReq_miss_latency::total    209940000                       # number of ReadReq miss cycles
system.cpu1.icache.ReadReq_miss_rate::.cpu1.inst     0.000319                       # miss rate for ReadReq accesses
system.cpu1.icache.ReadReq_miss_rate::total     0.000319                       # miss rate for ReadReq accesses
system.cpu1.icache.ReadReq_misses::.cpu1.inst         2439                       # number of ReadReq misses
system.cpu1.icache.ReadReq_misses::total         2439                       # number of ReadReq misses
system.cpu1.icache.ReadReq_mshr_miss_latency::.cpu1.inst    205062000                       # number of ReadReq MSHR miss cycles
system.cpu1.icache.ReadReq_mshr_miss_latency::total    205062000                       # number of ReadReq MSHR miss cycles
system.cpu1.icache.ReadReq_mshr_miss_rate::.cpu1.inst     0.000319                       # mshr miss rate for ReadReq accesses
system.cpu1.icache.ReadReq_mshr_miss_rate::total     0.000319                       # mshr miss rate for ReadReq accesses
system.cpu1.icache.ReadReq_mshr_misses::.cpu1.inst         2439                       # number of ReadReq MSHR misses
system.cpu1.icache.ReadReq_mshr_misses::total         2439                       # number of ReadReq MSHR misses
system.cpu1.icache.avg_blocked_cycles::no_mshrs          nan                       # average number of cycles each access was blocked
system.cpu1.icache.avg_blocked_cycles::no_targets          nan                       # average number of cycles each access was blocked
system.cpu1.icache.blocked::no_mshrs                0                       # number of cycles access was blocked
system.cpu1.icache.blocked::no_targets              0                       # number of cycles access was blocked
system.cpu1.icache.blocked_cycles::no_mshrs            0                       # number of cycles access was blocked
system.cpu1.icache.blocked_cycles::no_targets            0                       # number of cycles access was blocked
system.cpu1.icache.demand_accesses::.cpu1.inst      7637575                       # number of demand (read+write) accesses
system.cpu1.icache.demand_accesses::total      7637575                       # number of demand (read+write) accesses
system.cpu1.icache.demand_avg_miss_latency::.cpu1.inst 86076.260763                       # average overall miss latency
system.cpu1.icache.demand_avg_miss_latency::total 86076.260763                       # average overall miss latency
system.cpu1.icache.demand_avg_mshr_miss_latency::.cpu1.inst 84076.260763                       # average overall mshr miss latency
system.cpu1.icache.demand_avg_mshr_miss_latency::total 84076.260763                       # average overall mshr miss latency
system.cpu1.icache.demand_hits::.cpu1.inst      7635136                       # number of demand (read+write) hits
system.cpu1.icache.demand_hits::total         7635136                       # number of demand (read+write) hits
system.cpu1.icache.demand_miss_latency::.cpu1.inst    209940000                       # number of demand (read+write) miss cycles
system.cpu1.icache.demand_miss_latency::total    209940000                       # number of demand (read+write) miss cycles
system.cpu1.icache.demand_miss_rate::.cpu1.inst     0.000319                       # miss rate for demand accesses
system.cpu1.icache.demand_miss_rate::total     0.000319                       # miss rate for demand accesses
system.cpu1.icache.demand_misses::.cpu1.inst         2439                       # number of demand (read+write) misses
system.cpu1.icache.demand_misses::total          2439                       # number of demand (read+write) misses
system.cpu1.icache.demand_mshr_miss_latency::.cpu1.inst    205062000                       # number of demand (read+write) MSHR miss cycles
system.cpu1.icache.demand_mshr_miss_latency::total    205062000                       # number of demand (read+write) MSHR miss cycles
system.cpu1.icache.demand_mshr_miss_rate::.cpu1.inst     0.000319                       # mshr miss rate for demand accesses
system.cpu1.icache.demand_mshr_miss_rate::total     0.000319                       # mshr miss rate for demand accesses
system.cpu1.icache.demand_mshr_misses::.cpu1.inst         2439                       # number of demand (read+write) MSHR misses
system.cpu1.icache.demand_mshr_misses::total         2439                       # number of demand (read+write) MSHR misses
system.cpu1.icache.overall_accesses::.cpu1.inst      7637575                       # number of overall (read+write) accesses
system.cpu1.icache.overall_accesses::total      7637575                       # number of overall (read+write) accesses
system.cpu1.icache.overall_avg_miss_latency::.cpu1.inst 86076.260763                       # average overall miss latency
system.cpu1.icache.overall_avg_miss_latency::total 86076.260763                       # average overall miss latency
system.cpu1.icache.overall_avg_mshr_miss_latency::.cpu1.inst 84076.260763                       # average overall mshr miss latency
system.cpu1.icache.overall_avg_mshr_miss_latency::total 84076.260763                       # average overall mshr miss latency
system.cpu1.icache.overall_hits::.cpu1.inst      7635136                       # number of overall hits
system.cpu1.icache.overall_hits::total        7635136                       # number of overall hits
system.cpu1.icache.overall_miss_latency::.cpu1.inst    209940000                       # number of overall miss cycles
system.cpu1.icache.overall_miss_latency::total    209940000                       # number of overall miss cycles
system.cpu1.icache.overall_miss_rate::.cpu1.inst     0.000319                       # miss rate for overall accesses
system.cpu1.icache.overall_miss_rate::total     0.000319                       # miss rate for overall accesses
system.cpu1.icache.overall_misses::.cpu1.inst         2439                       # number of overall misses
system.cpu1.icache.overall_misses::total         2439                       # number of overall misses
system.cpu1.icache.overall_mshr_miss_latency::.cpu1.inst    205062000                       # number of overall MSHR miss cycles
system.cpu1.icache.overall_mshr_miss_latency::total    205062000                       # number of overall MSHR miss cycles
system.cpu1.icache.overall_mshr_miss_rate::.cpu1.inst     0.000319                       # mshr miss rate for overall accesses
system.cpu1.icache.overall_mshr_miss_rate::total     0.000319                       # mshr miss rate for overall accesses
system.cpu1.icache.overall_mshr_misses::.cpu1.inst         2439                       # number of overall MSHR misses
system.cpu1.icache.overall_mshr_misses::total         2439                       # number of overall MSHR misses
system.cpu1.icache.pwrStateResidencyTicks::UNDEFINED  26319248000                       # Cumulative time (in ticks) in various power states
system.cpu1.icache.replacements                  2183                       # number of replacements
system.cpu1.icache.tags.age_task_id_blocks_1024::1          133                       # Occupied blocks per task id
system.cpu1.icache.tags.age_task_id_blocks_1024::2           53                       # Occupied blocks per task id
system.cpu1.icache.tags.age_task_id_blocks_1024::4           70                       # Occupied blocks per task id
system.cpu1.icache.tags.avg_refs          3131.437064                       # Average number of references to valid blocks.
system.cpu1.icache.tags.data_accesses        15277589                       # Number of data accesses
system.cpu1.icache.tags.occ_blocks::.cpu1.inst   254.910260                       # Average occupied blocks per requestor
system.cpu1.icache.tags.occ_percent::.cpu1.inst     0.995743                       # Average percentage of cache occupancy
system.cpu1.icache.tags.occ_percent::total     0.995743                       # Average percentage of cache occupancy
system.cpu1.icache.tags.occ_task_id_blocks::1024          256                       # Occupied blocks per task id
system.cpu1.icache.tags.occ_task_id_percent::1024            1                       # Percentage of cache occupancy per task id
system.cpu1.icache.tags.pwrStateResidencyTicks::UNDEFINED  26319248000                       # Cumulative time (in ticks) in various power states
system.cpu1.icache.tags.sampled_refs             2439                       # Sample count of references to valid blocks.
system.cpu1.icache.tags.tag_accesses         15277589                       # Number of tag accesses
system.cpu1.icache.tags.tagsinuse          254.910260                       # Cycle average of tags in use
system.cpu1.icache.tags.total_refs            7637575                       # Total number of references to valid blocks.
system.cpu1.icache.tags.warmup_cycle           114000                       # Cycle when the warmup percentage was hit.
system.cpu1.idle_fraction                    0.001156                       # Percentage of idle cycles
system.cpu1.interrupts.clk_domain.clock         16000                       # Clock period in ticks
system.cpu1.interrupts.pwrStateResidencyTicks::UNDEFINED  26319248000                       # Cumulative time (in ticks) in various power states
system.cpu1.itb.rdAccesses                          0                       # TLB accesses on read requests
system.cpu1.itb.rdMisses                            0                       # TLB misses on read requests
system.cpu1.itb.walker.pwrStateResidencyTicks::UNDEFINED  26319248000                       # Cumulative time (in ticks) in various power states
system.cpu1.itb.wrAccesses                    7637575                       # TLB accesses on write requests
system.cpu1.itb.wrMisses                          292                       # TLB misses on write requests
system.cpu1.not_idle_fraction                0.998844                       # Percentage of non-idle cycles
system.cpu1.numCycles                        26288810                       # number of cpu cycles simulated
system.cpu1.numWorkItemsCompleted                   0                       # number of work items this cpu completed
system.cpu1.numWorkItemsStarted                     0                       # number of work items this cpu started
system.cpu1.num_busy_cycles              26258407.200306                       # Number of busy cycles
system.cpu1.num_cc_register_reads             4749339                       # number of times the CC registers were read
system.cpu1.num_cc_register_writes            3541090                       # number of times the CC registers were written
system.cpu1.num_conditional_control_insts       795867                       # number of instructions that are conditional controls
system.cpu1.num_fp_alu_accesses                 73417                       # Number of float alu accesses
system.cpu1.num_fp_insts                        73417                       # number of float instructions
system.cpu1.num_fp_register_reads              100729                       # number of times the floating registers were read
system.cpu1.num_fp_register_writes              53576                       # number of times the floating registers were written
system.cpu1.num_func_calls                      18274                       # number of times a function call or return occured
system.cpu1.num_idle_cycles              30402.799694                       # Number of idle cycles
system.cpu1.num_int_alu_accesses             10989573                       # Number of integer alu accesses
system.cpu1.num_int_insts                    10989573                       # number of integer instructions
system.cpu1.num_int_register_reads           22870723                       # number of times the integer registers were read
system.cpu1.num_int_register_writes           8959437                       # number of times the integer registers were written
system.cpu1.num_load_insts                    2755555                       # Number of load instructions
system.cpu1.num_mem_refs                      3620179                       # number of memory refs
system.cpu1.num_store_insts                    864624                       # Number of store instructions
system.cpu1.num_vec_alu_accesses                    0                       # Number of vector alu accesses
system.cpu1.num_vec_insts                           0                       # number of vector instructions
system.cpu1.num_vec_register_reads                  0                       # number of times the vector registers were read
system.cpu1.num_vec_register_writes                 0                       # number of times the vector registers were written
system.cpu1.op_class::No_OpClass                19405      0.18%      0.18% # Class of executed instruction
system.cpu1.op_class::IntAlu                  7326923     66.35%     66.53% # Class of executed instruction
system.cpu1.op_class::IntMult                     415      0.00%     66.53% # Class of executed instruction
system.cpu1.op_class::IntDiv                    34769      0.31%     66.84% # Class of executed instruction
system.cpu1.op_class::FloatAdd                   2884      0.03%     66.87% # Class of executed instruction
system.cpu1.op_class::FloatCmp                      0      0.00%     66.87% # Class of executed instruction
system.cpu1.op_class::FloatCvt                   1344      0.01%     66.88% # Class of executed instruction
system.cpu1.op_class::FloatMult                     0      0.00%     66.88% # Class of executed instruction
system.cpu1.op_class::FloatMultAcc                  0      0.00%     66.88% # Class of executed instruction
system.cpu1.op_class::FloatDiv                      0      0.00%     66.88% # Class of executed instruction
system.cpu1.op_class::FloatMisc                     0      0.00%     66.88% # Class of executed instruction
system.cpu1.op_class::FloatSqrt                     0      0.00%     66.88% # Class of executed instruction
system.cpu1.op_class::SimdAdd                    6146      0.06%     66.94% # Class of executed instruction
system.cpu1.op_class::SimdAddAcc                    0      0.00%     66.94% # Class of executed instruction
system.cpu1.op_class::SimdAlu                   11116      0.10%     67.04% # Class of executed instruction
system.cpu1.op_class::SimdCmp                       0      0.00%     67.04% # Class of executed instruction
system.cpu1.op_class::SimdCvt                   12010      0.11%     67.15% # Class of executed instruction
system.cpu1.op_class::SimdMisc                   6520      0.06%     67.21% # Class of executed instruction
system.cpu1.op_class::SimdMult                      0      0.00%     67.21% # Class of executed instruction
system.cpu1.op_class::SimdMultAcc                   0      0.00%     67.21% # Class of executed instruction
system.cpu1.op_class::SimdShift                  1018      0.01%     67.22% # Class of executed instruction
system.cpu1.op_class::SimdShiftAcc                  0      0.00%     67.22% # Class of executed instruction
system.cpu1.op_class::SimdDiv                       0      0.00%     67.22% # Class of executed instruction
system.cpu1.op_class::SimdSqrt                      0      0.00%     67.22% # Class of executed instruction
system.cpu1.op_class::SimdFloatAdd                  0      0.00%     67.22% # Class of executed instruction
system.cpu1.op_class::SimdFloatAlu                  0      0.00%     67.22% # Class of executed instruction
system.cpu1.op_class::SimdFloatCmp                  0      0.00%     67.22% # Class of executed instruction
system.cpu1.op_class::SimdFloatCvt                  0      0.00%     67.22% # Class of executed instruction
system.cpu1.op_class::SimdFloatDiv                  0      0.00%     67.22% # Class of executed instruction
system.cpu1.op_class::SimdFloatMisc                 0      0.00%     67.22% # Class of executed instruction
system.cpu1.op_class::SimdFloatMult                 0      0.00%     67.22% # Class of executed instruction
system.cpu1.op_class::SimdFloatMultAcc              0      0.00%     67.22% # Class of executed instruction
system.cpu1.op_class::SimdFloatSqrt                 0      0.00%     67.22% # Class of executed instruction
system.cpu1.op_class::SimdReduceAdd                 0      0.00%     67.22% # Class of executed instruction
system.cpu1.op_class::SimdReduceAlu                 0      0.00%     67.22% # Class of executed instruction
system.cpu1.op_class::SimdReduceCmp                 0      0.00%     67.22% # Class of executed instruction
system.cpu1.op_class::SimdFloatReduceAdd            0      0.00%     67.22% # Class of executed instruction
system.cpu1.op_class::SimdFloatReduceCmp            0      0.00%     67.22% # Class of executed instruction
system.cpu1.op_class::SimdAes                       0      0.00%     67.22% # Class of executed instruction
system.cpu1.op_class::SimdAesMix                    0      0.00%     67.22% # Class of executed instruction
system.cpu1.op_class::SimdSha1Hash                  0      0.00%     67.22% # Class of executed instruction
system.cpu1.op_class::SimdSha1Hash2                 0      0.00%     67.22% # Class of executed instruction
system.cpu1.op_class::SimdSha256Hash                0      0.00%     67.22% # Class of executed instruction
system.cpu1.op_class::SimdSha256Hash2               0      0.00%     67.22% # Class of executed instruction
system.cpu1.op_class::SimdShaSigma2                 0      0.00%     67.22% # Class of executed instruction
system.cpu1.op_class::SimdShaSigma3                 0      0.00%     67.22% # Class of executed instruction
system.cpu1.op_class::SimdPredAlu                   0      0.00%     67.22% # Class of executed instruction
system.cpu1.op_class::MemRead                 2736247     24.78%     92.00% # Class of executed instruction
system.cpu1.op_class::MemWrite                 852271      7.72%     99.71% # Class of executed instruction
system.cpu1.op_class::FloatMemRead              19308      0.17%     99.89% # Class of executed instruction
system.cpu1.op_class::FloatMemWrite             12353      0.11%    100.00% # Class of executed instruction
system.cpu1.op_class::IprAccess                     0      0.00%    100.00% # Class of executed instruction
system.cpu1.op_class::InstPrefetch                  0      0.00%    100.00% # Class of executed instruction
system.cpu1.op_class::total                  11042729                       # Class of executed instruction
system.cpu1.pwrStateResidencyTicks::ON    26319248000                       # Cumulative time (in ticks) in various power states
system.cpu1.workload.numSyscalls                   59                       # Number of system calls
system.cpu2.Branches                          1225834                       # Number of branches fetched
system.cpu2.committedInsts                    5971651                       # Number of instructions committed
system.cpu2.committedOps                     11042729                       # Number of ops (including micro ops) committed
system.cpu2.dcache.ReadReq_accesses::.cpu2.data      2755582                       # number of ReadReq accesses(hits+misses)
system.cpu2.dcache.ReadReq_accesses::total      2755582                       # number of ReadReq accesses(hits+misses)
system.cpu2.dcache.ReadReq_avg_miss_latency::.cpu2.data 102776.761343                       # average ReadReq miss latency
system.cpu2.dcache.ReadReq_avg_miss_latency::total 102776.761343                       # average ReadReq miss latency
system.cpu2.dcache.ReadReq_avg_mshr_miss_latency::.cpu2.data 100776.761343                       # average ReadReq mshr miss latency
system.cpu2.dcache.ReadReq_avg_mshr_miss_latency::total 100776.761343                       # average ReadReq mshr miss latency
system.cpu2.dcache.ReadReq_hits::.cpu2.data      2742027                       # number of ReadReq hits
system.cpu2.dcache.ReadReq_hits::total        2742027                       # number of ReadReq hits
system.cpu2.dcache.ReadReq_miss_latency::.cpu2.data   1393139000                       # number of ReadReq miss cycles
system.cpu2.dcache.ReadReq_miss_latency::total   1393139000                       # number of ReadReq miss cycles
system.cpu2.dcache.ReadReq_miss_rate::.cpu2.data     0.004919                       # miss rate for ReadReq accesses
system.cpu2.dcache.ReadReq_miss_rate::total     0.004919                       # miss rate for ReadReq accesses
system.cpu2.dcache.ReadReq_misses::.cpu2.data        13555                       # number of ReadReq misses
system.cpu2.dcache.ReadReq_misses::total        13555                       # number of ReadReq misses
system.cpu2.dcache.ReadReq_mshr_miss_latency::.cpu2.data   1366029000                       # number of ReadReq MSHR miss cycles
system.cpu2.dcache.ReadReq_mshr_miss_latency::total   1366029000                       # number of ReadReq MSHR miss cycles
system.cpu2.dcache.ReadReq_mshr_miss_rate::.cpu2.data     0.004919                       # mshr miss rate for ReadReq accesses
system.cpu2.dcache.ReadReq_mshr_miss_rate::total     0.004919                       # mshr miss rate for ReadReq accesses
system.cpu2.dcache.ReadReq_mshr_misses::.cpu2.data        13555                       # number of ReadReq MSHR misses
system.cpu2.dcache.ReadReq_mshr_misses::total        13555                       # number of ReadReq MSHR misses
system.cpu2.dcache.WriteReq_accesses::.cpu2.data       864634                       # number of WriteReq accesses(hits+misses)
system.cpu2.dcache.WriteReq_accesses::total       864634                       # number of WriteReq accesses(hits+misses)
system.cpu2.dcache.WriteReq_avg_miss_latency::.cpu2.data 52785.522095                       # average WriteReq miss latency
system.cpu2.dcache.WriteReq_avg_miss_latency::total 52785.522095                       # average WriteReq miss latency
system.cpu2.dcache.WriteReq_avg_mshr_miss_latency::.cpu2.data 50785.522095                       # average WriteReq mshr miss latency
system.cpu2.dcache.WriteReq_avg_mshr_miss_latency::total 50785.522095                       # average WriteReq mshr miss latency
system.cpu2.dcache.WriteReq_hits::.cpu2.data       825982                       # number of WriteReq hits
system.cpu2.dcache.WriteReq_hits::total        825982                       # number of WriteReq hits
system.cpu2.dcache.WriteReq_miss_latency::.cpu2.data   2040266000                       # number of WriteReq miss cycles
system.cpu2.dcache.WriteReq_miss_latency::total   2040266000                       # number of WriteReq miss cycles
system.cpu2.dcache.WriteReq_miss_rate::.cpu2.data     0.044703                       # miss rate for WriteReq accesses
system.cpu2.dcache.WriteReq_miss_rate::total     0.044703                       # miss rate for WriteReq accesses
system.cpu2.dcache.WriteReq_misses::.cpu2.data        38652                       # number of WriteReq misses
system.cpu2.dcache.WriteReq_misses::total        38652                       # number of WriteReq misses
system.cpu2.dcache.WriteReq_mshr_miss_latency::.cpu2.data   1962962000                       # number of WriteReq MSHR miss cycles
system.cpu2.dcache.WriteReq_mshr_miss_latency::total   1962962000                       # number of WriteReq MSHR miss cycles
system.cpu2.dcache.WriteReq_mshr_miss_rate::.cpu2.data     0.044703                       # mshr miss rate for WriteReq accesses
system.cpu2.dcache.WriteReq_mshr_miss_rate::total     0.044703                       # mshr miss rate for WriteReq accesses
system.cpu2.dcache.WriteReq_mshr_misses::.cpu2.data        38652                       # number of WriteReq MSHR misses
system.cpu2.dcache.WriteReq_mshr_misses::total        38652                       # number of WriteReq MSHR misses
system.cpu2.dcache.avg_blocked_cycles::no_mshrs          nan                       # average number of cycles each access was blocked
system.cpu2.dcache.avg_blocked_cycles::no_targets          nan                       # average number of cycles each access was blocked
system.cpu2.dcache.blocked::no_mshrs                0                       # number of cycles access was blocked
system.cpu2.dcache.blocked::no_targets              0                       # number of cycles access was blocked
system.cpu2.dcache.blocked_cycles::no_mshrs            0                       # number of cycles access was blocked
system.cpu2.dcache.blocked_cycles::no_targets            0                       # number of cycles access was blocked
system.cpu2.dcache.demand_accesses::.cpu2.data      3620216                       # number of demand (read+write) accesses
system.cpu2.dcache.demand_accesses::total      3620216                       # number of demand (read+write) accesses
system.cpu2.dcache.demand_avg_miss_latency::.cpu2.data 65765.223054                       # average overall miss latency
system.cpu2.dcache.demand_avg_miss_latency::total 65765.223054                       # average overall miss latency
system.cpu2.dcache.demand_avg_mshr_miss_latency::.cpu2.data 63765.223054                       # average overall mshr miss latency
system.cpu2.dcache.demand_avg_mshr_miss_latency::total 63765.223054                       # average overall mshr miss latency
system.cpu2.dcache.demand_hits::.cpu2.data      3568009                       # number of demand (read+write) hits
system.cpu2.dcache.demand_hits::total         3568009                       # number of demand (read+write) hits
system.cpu2.dcache.demand_miss_latency::.cpu2.data   3433405000                       # number of demand (read+write) miss cycles
system.cpu2.dcache.demand_miss_latency::total   3433405000                       # number of demand (read+write) miss cycles
system.cpu2.dcache.demand_miss_rate::.cpu2.data     0.014421                       # miss rate for demand accesses
system.cpu2.dcache.demand_miss_rate::total     0.014421                       # miss rate for demand accesses
system.cpu2.dcache.demand_misses::.cpu2.data        52207                       # number of demand (read+write) misses
system.cpu2.dcache.demand_misses::total         52207                       # number of demand (read+write) misses
system.cpu2.dcache.demand_mshr_miss_latency::.cpu2.data   3328991000                       # number of demand (read+write) MSHR miss cycles
system.cpu2.dcache.demand_mshr_miss_latency::total   3328991000                       # number of demand (read+write) MSHR miss cycles
system.cpu2.dcache.demand_mshr_miss_rate::.cpu2.data     0.014421                       # mshr miss rate for demand accesses
system.cpu2.dcache.demand_mshr_miss_rate::total     0.014421                       # mshr miss rate for demand accesses
system.cpu2.dcache.demand_mshr_misses::.cpu2.data        52207                       # number of demand (read+write) MSHR misses
system.cpu2.dcache.demand_mshr_misses::total        52207                       # number of demand (read+write) MSHR misses
system.cpu2.dcache.overall_accesses::.cpu2.data      3620216                       # number of overall (read+write) accesses
system.cpu2.dcache.overall_accesses::total      3620216                       # number of overall (read+write) accesses
system.cpu2.dcache.overall_avg_miss_latency::.cpu2.data 65765.223054                       # average overall miss latency
system.cpu2.dcache.overall_avg_miss_latency::total 65765.223054                       # average overall miss latency
system.cpu2.dcache.overall_avg_mshr_miss_latency::.cpu2.data 63765.223054                       # average overall mshr miss latency
system.cpu2.dcache.overall_avg_mshr_miss_latency::total 63765.223054                       # average overall mshr miss latency
system.cpu2.dcache.overall_hits::.cpu2.data      3568009                       # number of overall hits
system.cpu2.dcache.overall_hits::total        3568009                       # number of overall hits
system.cpu2.dcache.overall_miss_latency::.cpu2.data   3433405000                       # number of overall miss cycles
system.cpu2.dcache.overall_miss_latency::total   3433405000                       # number of overall miss cycles
system.cpu2.dcache.overall_miss_rate::.cpu2.data     0.014421                       # miss rate for overall accesses
system.cpu2.dcache.overall_miss_rate::total     0.014421                       # miss rate for overall accesses
system.cpu2.dcache.overall_misses::.cpu2.data        52207                       # number of overall misses
system.cpu2.dcache.overall_misses::total        52207                       # number of overall misses
system.cpu2.dcache.overall_mshr_miss_latency::.cpu2.data   3328991000                       # number of overall MSHR miss cycles
system.cpu2.dcache.overall_mshr_miss_latency::total   3328991000                       # number of overall MSHR miss cycles
system.cpu2.dcache.overall_mshr_miss_rate::.cpu2.data     0.014421                       # mshr miss rate for overall accesses
system.cpu2.dcache.overall_mshr_miss_rate::total     0.014421                       # mshr miss rate for overall accesses
system.cpu2.dcache.overall_mshr_misses::.cpu2.data        52207                       # number of overall MSHR misses
system.cpu2.dcache.overall_mshr_misses::total        52207                       # number of overall MSHR misses
system.cpu2.dcache.pwrStateResidencyTicks::UNDEFINED  26319248000                       # Cumulative time (in ticks) in various power states
system.cpu2.dcache.replacements                 51183                       # number of replacements
system.cpu2.dcache.tags.age_task_id_blocks_1024::2          525                       # Occupied blocks per task id
[...]
system.mem_ctrl.totBusLat                   544265000                       # Total ticks spent in databus transfers
system.mem_ctrl.totGap                    26319218000                       # Total gap between requests
system.mem_ctrl.totMemAccLat               3987575566                       # Total ticks spent from burst creation until serviced by the DRAM
system.mem_ctrl.totQLat                    1946581816                       # Total ticks spent queuing
system.mem_ctrl.wrPerTurnAround::samples         3065                       # Writes before turning the bus around for reads
system.mem_ctrl.wrPerTurnAround::mean       17.523654                       # Writes before turning the bus around for reads
system.mem_ctrl.wrPerTurnAround::gmean      17.480069                       # Writes before turning the bus around for reads
system.mem_ctrl.wrPerTurnAround::stdev       1.240175                       # Writes before turning the bus around for reads
system.mem_ctrl.wrPerTurnAround::16              1012     33.02%     33.02% # Writes before turning the bus around for reads
system.mem_ctrl.wrPerTurnAround::17               143      4.67%     37.68% # Writes before turning the bus around for reads
system.mem_ctrl.wrPerTurnAround::18              1407     45.91%     83.59% # Writes before turning the bus around for reads
system.mem_ctrl.wrPerTurnAround::19               343     11.19%     94.78% # Writes before turning the bus around for reads
system.mem_ctrl.wrPerTurnAround::20               123      4.01%     98.79% # Writes before turning the bus around for reads
system.mem_ctrl.wrPerTurnAround::21                30      0.98%     99.77% # Writes before turning the bus around for reads
system.mem_ctrl.wrPerTurnAround::22                 7      0.23%    100.00% # Writes before turning the bus around for reads
system.mem_ctrl.wrPerTurnAround::total           3065                       # Writes before turning the bus around for reads
system.mem_ctrl.wrQLenPdf::0                        1                       # What write queue length does an incoming req see
system.mem_ctrl.wrQLenPdf::1                        1                       # What write queue length does an incoming req see
system.mem_ctrl.wrQLenPdf::2                        1                       # What write queue length does an incoming req see
system.mem_ctrl.wrQLenPdf::3                        1                       # What write queue length does an incoming req see
system.mem_ctrl.wrQLenPdf::4                        1                       # What write queue length does an incoming req see
system.mem_ctrl.wrQLenPdf::5                        1                       # What write queue length does an incoming req see
system.mem_ctrl.wrQLenPdf::6                        1                       # What write queue length does an incoming req see
system.mem_ctrl.wrQLenPdf::7                        1                       # What write queue length does an incoming req see
system.mem_ctrl.wrQLenPdf::8                        1                       # What write queue length does an incoming req see
system.mem_ctrl.wrQLenPdf::9                        1                       # What write queue length does an incoming req see
system.mem_ctrl.wrQLenPdf::10                       1                       # What write queue length does an incoming req see
system.mem_ctrl.wrQLenPdf::11                       1                       # What write queue length does an incoming req see
system.mem_ctrl.wrQLenPdf::12                       1                       # What write queue length does an incoming req see
system.mem_ctrl.wrQLenPdf::13                       1                       # What write queue length does an incoming req see
system.mem_ctrl.wrQLenPdf::14                       1                       # What write queue length does an incoming req see
system.mem_ctrl.wrQLenPdf::15                    1817                       # What write queue length does an incoming req see
system.mem_ctrl.wrQLenPdf::16                    2041                       # What write queue length does an incoming req see
system.mem_ctrl.wrQLenPdf::17                    2888                       # What write queue length does an incoming req see
system.mem_ctrl.wrQLenPdf::18                    3124                       # What write queue length does an incoming req see
system.mem_ctrl.wrQLenPdf::19                    3136                       # What write queue length does an incoming req see
system.mem_ctrl.wrQLenPdf::20                    3164                       # What write queue length does an incoming req see
system.mem_ctrl.wrQLenPdf::21                    3157                       # What write queue length does an incoming req see
system.mem_ctrl.wrQLenPdf::22                    3136                       # What write queue length does an incoming req see
system.mem_ctrl.wrQLenPdf::23                    3153                       # What write queue length does an incoming req see
system.mem_ctrl.wrQLenPdf::24                    3153                       # What write queue length does an incoming req see
system.mem_ctrl.wrQLenPdf::25                    3186                       # What write queue length does an incoming req see
system.mem_ctrl.wrQLenPdf::26                    3216                       # What write queue length does an incoming req see
system.mem_ctrl.wrQLenPdf::27                    3099                       # What write queue length does an incoming req see
system.mem_ctrl.wrQLenPdf::28                    3114                       # What write queue length does an incoming req see
system.mem_ctrl.wrQLenPdf::29                    3100                       # What write queue length does an incoming req see
system.mem_ctrl.wrQLenPdf::30                    3074                       # What write queue length does an incoming req see
system.mem_ctrl.wrQLenPdf::31                    3079                       # What write queue length does an incoming req see
system.mem_ctrl.wrQLenPdf::32                    3068                       # What write queue length does an incoming req see
system.mem_ctrl.wrQLenPdf::33                      10                       # What write queue length does an incoming req see
system.mem_ctrl.wrQLenPdf::34                       2                       # What write queue length does an incoming req see
system.mem_ctrl.wrQLenPdf::35                       0                       # What write queue length does an incoming req see
system.mem_ctrl.wrQLenPdf::36                       0                       # What write queue length does an incoming req see
system.mem_ctrl.wrQLenPdf::37                       0                       # What write queue length does an incoming req see
system.mem_ctrl.wrQLenPdf::38                       0                       # What write queue length does an incoming req see
system.mem_ctrl.wrQLenPdf::39                       0                       # What write queue length does an incoming req see
system.mem_ctrl.wrQLenPdf::40                       0                       # What write queue length does an incoming req see
system.mem_ctrl.wrQLenPdf::41                       0                       # What write queue length does an incoming req see
system.mem_ctrl.wrQLenPdf::42                       0                       # What write queue length does an incoming req see
system.mem_ctrl.wrQLenPdf::43                       0                       # What write queue length does an incoming req see
system.mem_ctrl.wrQLenPdf::44                       0                       # What write queue length does an incoming req see
system.mem_ctrl.wrQLenPdf::45                       0                       # What write queue length does an incoming req see
system.mem_ctrl.wrQLenPdf::46                       0                       # What write queue length does an incoming req see
system.mem_ctrl.wrQLenPdf::47                       0                       # What write queue length does an incoming req see
system.mem_ctrl.wrQLenPdf::48                       0                       # What write queue length does an incoming req see
system.mem_ctrl.wrQLenPdf::49                       0                       # What write queue length does an incoming req see
system.mem_ctrl.wrQLenPdf::50                       0                       # What write queue length does an incoming req see
system.mem_ctrl.wrQLenPdf::51                       0                       # What write queue length does an incoming req see
system.mem_ctrl.wrQLenPdf::52                       0                       # What write queue length does an incoming req see
system.mem_ctrl.wrQLenPdf::53                       0                       # What write queue length does an incoming req see
system.mem_ctrl.wrQLenPdf::54                       0                       # What write queue length does an incoming req see
system.mem_ctrl.wrQLenPdf::55                       0                       # What write queue length does an incoming req see
system.mem_ctrl.wrQLenPdf::56                       0                       # What write queue length does an incoming req see
system.mem_ctrl.wrQLenPdf::57                       0                       # What write queue length does an incoming req see
system.mem_ctrl.wrQLenPdf::58                       0                       # What write queue length does an incoming req see
system.mem_ctrl.wrQLenPdf::59                       0                       # What write queue length does an incoming req see
system.mem_ctrl.wrQLenPdf::60                       0                       # What write queue length does an incoming req see
system.mem_ctrl.wrQLenPdf::61                       0                       # What write queue length does an incoming req see
system.mem_ctrl.wrQLenPdf::62                       0                       # What write queue length does an incoming req see
system.mem_ctrl.wrQLenPdf::63                       0                       # What write queue length does an incoming req see
system.mem_ctrl.writeBursts                     53732                       # Number of DRAM write bursts, including those merged in the write queue
system.mem_ctrl.writePktSize::0                     0                       # Write request sizes (log2)
system.mem_ctrl.writePktSize::1                     0                       # Write request sizes (log2)
system.mem_ctrl.writePktSize::2                     0                       # Write request sizes (log2)
system.mem_ctrl.writePktSize::3                     0                       # Write request sizes (log2)
system.mem_ctrl.writePktSize::4                     0                       # Write request sizes (log2)
system.mem_ctrl.writePktSize::5                     0                       # Write request sizes (log2)
system.mem_ctrl.writePktSize::6                 53732                       # Write request sizes (log2)
system.mem_ctrl.writeReqs                       53732                       # Number of write requests accepted
system.mem_ctrl.writeRowHitRate                 82.81                       # Row buffer hit rate for writes
system.mem_ctrl.writeRowHits                    44493                       # Number of row buffer hits during writes
system.mem_ctrl_0.actBackEnergy            8783121450                       # Energy for active background per rank (pJ)
system.mem_ctrl_0.actEnergy                 218062740                       # Energy for activate commands per rank (pJ)
system.mem_ctrl_0.actPowerDownEnergy                0                       # Energy for active power-down per rank (pJ)
system.mem_ctrl_0.averagePower             548.118980                       # Core power per rank (mW)
system.mem_ctrl_0.memoryStateTime::IDLE    6952136351                       # Time in different power states
system.mem_ctrl_0.memoryStateTime::REF      878800000                       # Time in different power states
system.mem_ctrl_0.memoryStateTime::SREF             0                       # Time in different power states
system.mem_ctrl_0.memoryStateTime::PRE_PDN            0                       # Time in different power states
system.mem_ctrl_0.memoryStateTime::ACT    18488311649                       # Time in different power states
system.mem_ctrl_0.memoryStateTime::ACT_PDN            0                       # Time in different power states
system.mem_ctrl_0.preBackEnergy            2710278720                       # Energy for precharge background per rank (pJ)
system.mem_ctrl_0.preEnergy                 115895505                       # Energy for precharge commands per rank (pJ)
system.mem_ctrl_0.prePowerDownEnergy                0                       # Energy for precharge power-down per rank (pJ)
system.mem_ctrl_0.readEnergy                384160560                       # Energy for read commands per rank (pJ)
system.mem_ctrl_0.refreshEnergy          2077483200.000000                       # Energy for refresh commands per rank (pJ)
system.mem_ctrl_0.selfRefreshEnergy                 0                       # Energy for self refresh per rank (pJ)
system.mem_ctrl_0.totalEnergy             14426079375                       # Total energy per rank (pJ)
system.mem_ctrl_0.totalIdleTime                     0                       # Total Idle time Per DRAM Rank
system.mem_ctrl_0.writeEnergy               137077200                       # Energy for write commands per rank (pJ)
system.mem_ctrl_1.actBackEnergy            9133448010                       # Energy for active background per rank (pJ)
system.mem_ctrl_1.actEnergy                 215420940                       # Energy for activate commands per rank (pJ)
system.mem_ctrl_1.actPowerDownEnergy                0                       # Energy for active power-down per rank (pJ)
system.mem_ctrl_1.averagePower             550.640992                       # Core power per rank (mW)
system.mem_ctrl_1.memoryStateTime::IDLE    6187962882                       # Time in different power states
system.mem_ctrl_1.memoryStateTime::REF      878800000                       # Time in different power states
system.mem_ctrl_1.memoryStateTime::SREF             0                       # Time in different power states
system.mem_ctrl_1.memoryStateTime::PRE_PDN            0                       # Time in different power states
system.mem_ctrl_1.memoryStateTime::ACT    19252485118                       # Time in different power states
system.mem_ctrl_1.memoryStateTime::ACT_PDN            0                       # Time in different power states
system.mem_ctrl_1.preBackEnergy            2415266880                       # Energy for precharge background per rank (pJ)
system.mem_ctrl_1.preEnergy                 114498945                       # Energy for precharge commands per rank (pJ)
system.mem_ctrl_1.prePowerDownEnergy                0                       # Energy for precharge power-down per rank (pJ)
system.mem_ctrl_1.readEnergy                393049860                       # Energy for read commands per rank (pJ)
system.mem_ctrl_1.refreshEnergy          2077483200.000000                       # Energy for refresh commands per rank (pJ)
system.mem_ctrl_1.selfRefreshEnergy                 0                       # Energy for self refresh per rank (pJ)
system.mem_ctrl_1.totalEnergy             14492456835                       # Total energy per rank (pJ)
system.mem_ctrl_1.totalIdleTime                     0                       # Total Idle time Per DRAM Rank
system.mem_ctrl_1.writeEnergy               143289000                       # Energy for write commands per rank (pJ)
system.membus.pkt_count_system.l2cache.mem_side::system.mem_ctrl.port       321832                       # Packet count per connected master and slave (bytes)
system.membus.pkt_count_system.l2cache.mem_side::total       321832                       # Packet count per connected master and slave (bytes)
system.membus.pkt_count::total                 321832                       # Packet count per connected master and slave (bytes)
system.membus.pkt_size_system.l2cache.mem_side::system.mem_ctrl.port     10453504                       # Cumulative packet size per connected master and slave (bytes)
system.membus.pkt_size_system.l2cache.mem_side::total     10453504                       # Cumulative packet size per connected master and slave (bytes)
system.membus.pkt_size::total                10453504                       # Cumulative packet size per connected master and slave (bytes)
system.membus.pwrStateResidencyTicks::UNDEFINED  26319248000                       # Cumulative time (in ticks) in various power states
system.membus.reqLayer8.occupancy           470070043                       # Layer occupancy (ticks)
system.membus.reqLayer8.utilization               1.8                       # Layer utilization (%)
system.membus.respLayer0.occupancy          593447455                       # Layer occupancy (ticks)
system.membus.respLayer0.utilization              2.3                       # Layer utilization (%)
system.membus.snoopTraffic                          0                       # Total snoop traffic (bytes)
system.membus.snoop_fanout::samples            109604                       # Request fanout histogram
system.membus.snoop_fanout::mean                    0                       # Request fanout histogram
system.membus.snoop_fanout::stdev                   0                       # Request fanout histogram
system.membus.snoop_fanout::underflows              0      0.00%      0.00% # Request fanout histogram
system.membus.snoop_fanout::0                  109604    100.00%    100.00% # Request fanout histogram
system.membus.snoop_fanout::1                       0      0.00%    100.00% # Request fanout histogram
system.membus.snoop_fanout::overflows               0      0.00%    100.00% # Request fanout histogram
system.membus.snoop_fanout::min_value               0                       # Request fanout histogram
system.membus.snoop_fanout::max_value               0                       # Request fanout histogram
system.membus.snoop_fanout::total              109604                       # Request fanout histogram
system.membus.snoop_filter.hit_multi_requests            0                       # Number of requests hitting in the snoop filter with multiple (>1) holders of the requested data.
system.membus.snoop_filter.hit_multi_snoops            0                       # Number of snoops hitting in the snoop filter with multiple (>1) holders of the requested data.
system.membus.snoop_filter.hit_single_requests       102624                       # Number of requests hitting in the snoop filter with a single holder of the requested data.
system.membus.snoop_filter.hit_single_snoops            0                       # Number of snoops hitting in the snoop filter with a single holder of the requested data.
system.membus.snoop_filter.tot_requests        212228                       # Total number of requests made to the snoop filter.
system.membus.snoop_filter.tot_snoops               0                       # Total number of snoops made to the snoop filter.
system.membus.snoops                                0                       # Total snoops (count)
system.membus.trans_dist::ReadResp              53655                       # Transaction distribution
system.membus.trans_dist::WritebackDirty        53732                       # Transaction distribution
system.membus.trans_dist::CleanEvict            48892                       # Transaction distribution
system.membus.trans_dist::ReadExReq             55949                       # Transaction distribution
system.membus.trans_dist::ReadExResp            55949                       # Transaction distribution
system.membus.trans_dist::ReadSharedReq         53655                       # Transaction distribution

---------- End Simulation Statistics   ----------
