
---------- Begin Simulation Statistics ----------
final_tick                               2004775801000                       # Number of ticks from beginning of simulation (restored from checkpoints and never reset)
host_inst_rate                                 229221                       # Simulator instruction rate (inst/s)
host_mem_usage                                 883456                       # Number of bytes of host memory used
host_op_rate                                   378266                       # Simulator op (including micro ops) rate (op/s)
host_seconds                                  2385.33                       # Real time elapsed on the host
host_tick_rate                              840462033                       # Simulator tick rate (ticks/s)
sim_freq                                 1000000000000                       # Frequency of simulated ticks
sim_insts                                   546766938                       # Number of instructions simulated
sim_ops                                     902288706                       # Number of ops (including micro ops) simulated
sim_seconds                                  2.004776                       # Number of seconds simulated
sim_ticks                                2004775801000                       # Number of ticks simulated
system.clk_domain.clock                          1000                       # Clock period in ticks
system.clk_domain.voltage_domain.voltage            1                       # Voltage in Volts
system.cpu0.Branches                          1225849                       # Number of branches fetched
system.cpu0.committedInsts                    5971707                       # Number of instructions committed
system.cpu0.committedOps                     11042850                       # Number of ops (including micro ops) committed
system.cpu0.dcache.ReadReq_accesses::.cpu0.data      2755590                       # number of ReadReq accesses(hits+misses)
system.cpu0.dcache.ReadReq_accesses::total      2755590                       # number of ReadReq accesses(hits+misses)
system.cpu0.dcache.ReadReq_avg_miss_latency::.cpu0.data 112977.119883                       # average ReadReq miss latency
system.cpu0.dcache.ReadReq_avg_miss_latency::total 112977.119883                       # average ReadReq miss latency
system.cpu0.dcache.ReadReq_avg_mshr_miss_latency::.cpu0.data 110977.119883                       # average ReadReq mshr miss latency
system.cpu0.dcache.ReadReq_avg_mshr_miss_latency::total 110977.119883                       # average ReadReq mshr miss latency
system.cpu0.dcache.ReadReq_hits::.cpu0.data      2741910                       # number of ReadReq hits
system.cpu0.dcache.ReadReq_hits::total        2741910                       # number of ReadReq hits
system.cpu0.dcache.ReadReq_miss_latency::.cpu0.data   1545527000                       # number of ReadReq miss cycles
system.cpu0.dcache.ReadReq_miss_latency::total   1545527000                       # number of ReadReq miss cycles
system.cpu0.dcache.ReadReq_miss_rate::.cpu0.data     0.004964                       # miss rate for ReadReq accesses
system.cpu0.dcache.ReadReq_miss_rate::total     0.004964                       # miss rate for ReadReq accesses
system.cpu0.dcache.ReadReq_misses::.cpu0.data        13680                       # number of ReadReq misses
system.cpu0.dcache.ReadReq_misses::total        13680                       # number of ReadReq misses
system.cpu0.dcache.ReadReq_mshr_miss_latency::.cpu0.data   1518167000                       # number of ReadReq MSHR miss cycles
system.cpu0.dcache.ReadReq_mshr_miss_latency::total   1518167000                       # number of ReadReq MSHR miss cycles
system.cpu0.dcache.ReadReq_mshr_miss_rate::.cpu0.data     0.004964                       # mshr miss rate for ReadReq accesses
system.cpu0.dcache.ReadReq_mshr_miss_rate::total     0.004964                       # mshr miss rate for ReadReq accesses
system.cpu0.dcache.ReadReq_mshr_misses::.cpu0.data        13680                       # number of ReadReq MSHR misses
system.cpu0.dcache.ReadReq_mshr_misses::total        13680                       # number of ReadReq MSHR misses
system.cpu0.dcache.WriteReq_accesses::.cpu0.data       864634                       # number of WriteReq accesses(hits+misses)
system.cpu0.dcache.WriteReq_accesses::total       864634                       # number of WriteReq accesses(hits+misses)
system.cpu0.dcache.WriteReq_avg_miss_latency::.cpu0.data 67273.537418                       # average WriteReq miss latency
system.cpu0.dcache.WriteReq_avg_miss_latency::total 67273.537418                       # average WriteReq miss latency
system.cpu0.dcache.WriteReq_avg_mshr_miss_latency::.cpu0.data 65273.537418                       # average WriteReq mshr miss latency
system.cpu0.dcache.WriteReq_avg_mshr_miss_latency::total 65273.537418                       # average WriteReq mshr miss latency
system.cpu0.dcache.WriteReq_hits::.cpu0.data       825696                       # number of WriteReq hits
system.cpu0.dcache.WriteReq_hits::total        825696                       # number of WriteReq hits
system.cpu0.dcache.WriteReq_miss_latency::.cpu0.data   2619497000                       # number of WriteReq miss cycles
system.cpu0.dcache.WriteReq_miss_latency::total   2619497000                       # number of WriteReq miss cycles
system.cpu0.dcache.WriteReq_miss_rate::.cpu0.data     0.045034                       # miss rate for WriteReq accesses
system.cpu0.dcache.WriteReq_miss_rate::total     0.045034                       # miss rate for WriteReq accesses
system.cpu0.dcache.WriteReq_misses::.cpu0.data        38938                       # number of WriteReq misses
system.cpu0.dcache.WriteReq_misses::total        38938                       # number of WriteReq misses
system.cpu0.dcache.WriteReq_mshr_miss_latency::.cpu0.data   2541621000                       # number of WriteReq MSHR miss cycles
system.cpu0.dcache.WriteReq_mshr_miss_latency::total   2541621000                       # number of WriteReq MSHR miss cycles
system.cpu0.dcache.WriteReq_mshr_miss_rate::.cpu0.data     0.045034                       # mshr miss rate for WriteReq accesses
system.cpu0.dcache.WriteReq_mshr_miss_rate::total     0.045034                       # mshr miss rate for WriteReq accesses
system.cpu0.dcache.WriteReq_mshr_misses::.cpu0.data        38938                       # number of WriteReq MSHR misses
system.cpu0.dcache.WriteReq_mshr_misses::total        38938                       # number of WriteReq MSHR misses
system.cpu0.dcache.avg_blocked_cycles::no_mshrs          nan                       # average number of cycles each access was blocked
system.cpu0.dcache.avg_blocked_cycles::no_targets          nan                       # average number of cycles each access was blocked
system.cpu0.dcache.blocked::no_mshrs                0                       # number of cycles access was blocked
system.cpu0.dcache.blocked::no_targets              0                       # number of cycles access was blocked
system.cpu0.dcache.blocked_cycles::no_mshrs            0                       # number of cycles access was blocked
system.cpu0.dcache.blocked_cycles::no_targets            0                       # number of cycles access was blocked
system.cpu0.dcache.demand_accesses::.cpu0.data      3620224                       # number of demand (read+write) accesses
system.cpu0.dcache.demand_accesses::total      3620224                       # number of demand (read+write) accesses
system.cpu0.dcache.demand_avg_miss_latency::.cpu0.data 79155.878217                       # average overall miss latency
system.cpu0.dcache.demand_avg_miss_latency::total 79155.878217                       # average overall miss latency
system.cpu0.dcache.demand_avg_mshr_miss_latency::.cpu0.data 77155.878217                       # average overall mshr miss latency
system.cpu0.dcache.demand_avg_mshr_miss_latency::total 77155.878217                       # average overall mshr miss latency
system.cpu0.dcache.demand_hits::.cpu0.data      3567606                       # number of demand (read+write) hits
system.cpu0.dcache.demand_hits::total         3567606                       # number of demand (read+write) hits
system.cpu0.dcache.demand_miss_latency::.cpu0.data   4165024000                       # number of demand (read+write) miss cycles
system.cpu0.dcache.demand_miss_latency::total   4165024000                       # number of demand (read+write) miss cycles
system.cpu0.dcache.demand_miss_rate::.cpu0.data     0.014534                       # miss rate for demand accesses
system.cpu0.dcache.demand_miss_rate::total     0.014534                       # miss rate for demand accesses
system.cpu0.dcache.demand_misses::.cpu0.data        52618                       # number of demand (read+write) misses
system.cpu0.dcache.demand_misses::total         52618                       # number of demand (read+write) misses
system.cpu0.dcache.demand_mshr_miss_latency::.cpu0.data   4059788000                       # number of demand (read+write) MSHR miss cycles
system.cpu0.dcache.demand_mshr_miss_latency::total   4059788000                       # number of demand (read+write) MSHR miss cycles
system.cpu0.dcache.demand_mshr_miss_rate::.cpu0.data     0.014534                       # mshr miss rate for demand accesses
system.cpu0.dcache.demand_mshr_miss_rate::total     0.014534                       # mshr miss rate for demand accesses
system.cpu0.dcache.demand_mshr_misses::.cpu0.data        52618                       # number of demand (read+write) MSHR misses
system.cpu0.dcache.demand_mshr_misses::total        52618                       # number of demand (read+write) MSHR misses
system.cpu0.dcache.overall_accesses::.cpu0.data      3620224                       # number of overall (read+write) accesses
system.cpu0.dcache.overall_accesses::total      3620224                       # number of overall (read+write) accesses
system.cpu0.dcache.overall_avg_miss_latency::.cpu0.data 79155.878217                       # average overall miss latency
system.cpu0.dcache.overall_avg_miss_latency::total 79155.878217                       # average overall miss latency
system.cpu0.dcache.overall_avg_mshr_miss_latency::.cpu0.data 77155.878217                       # average overall mshr miss latency
system.cpu0.dcache.overall_avg_mshr_miss_latency::total 77155.878217                       # average overall mshr miss latency
system.cpu0.dcache.overall_hits::.cpu0.data      3567606                       # number of overall hits
system.cpu0.dcache.overall_hits::total        3567606                       # number of overall hits
system.cpu0.dcache.overall_miss_latency::.cpu0.data   4165024000                       # number of overall miss cycles
system.cpu0.dcache.overall_miss_latency::total   4165024000                       # number of overall miss cycles
system.cpu0.dcache.overall_miss_rate::.cpu0.data     0.014534                       # miss rate for overall accesses
system.cpu0.dcache.overall_miss_rate::total     0.014534                       # miss rate for overall accesses
system.cpu0.dcache.overall_misses::.cpu0.data        52618                       # number of overall misses
system.cpu0.dcache.overall_misses::total        52618                       # number of overall misses
system.cpu0.dcache.overall_mshr_miss_latency::.cpu0.data   4059788000                       # number of overall MSHR miss cycles
system.cpu0.dcache.overall_mshr_miss_latency::total   4059788000                       # number of overall MSHR miss cycles
system.cpu0.dcache.overall_mshr_miss_rate::.cpu0.data     0.014534                       # mshr miss rate for overall accesses
system.cpu0.dcache.overall_mshr_miss_rate::total     0.014534                       # mshr miss rate for overall accesses
system.cpu0.dcache.overall_mshr_misses::.cpu0.data        52618                       # number of overall MSHR misses
system.cpu0.dcache.overall_mshr_misses::total        52618                       # number of overall MSHR misses
system.cpu0.dcache.pwrStateResidencyTicks::UNDEFINED 2004775801000                       # Cumulative time (in ticks) in various power states
system.cpu0.dcache.replacements                 51594                       # number of replacements
system.cpu0.dcache.tags.age_task_id_blocks_1024::4         1024                       # Occupied blocks per task id
system.cpu0.dcache.tags.avg_refs            68.802007                       # Average number of references to valid blocks.
system.cpu0.dcache.tags.data_accesses         7293066                       # Number of data accesses
system.cpu0.dcache.tags.occ_blocks::.cpu0.data  1023.884350                       # Average occupied blocks per requestor
system.cpu0.dcache.tags.occ_percent::.cpu0.data     0.999887                       # Average percentage of cache occupancy
system.cpu0.dcache.tags.occ_percent::total     0.999887                       # Average percentage of cache occupancy
system.cpu0.dcache.tags.occ_task_id_blocks::1024         1024                       # Occupied blocks per task id
system.cpu0.dcache.tags.occ_task_id_percent::1024            1                       # Percentage of cache occupancy per task id
system.cpu0.dcache.tags.pwrStateResidencyTicks::UNDEFINED 2004775801000                       # Cumulative time (in ticks) in various power states
system.cpu0.dcache.tags.sampled_refs            52618                       # Sample count of references to valid blocks.
system.cpu0.dcache.tags.tag_accesses          7293066                       # Number of tag accesses
system.cpu0.dcache.tags.tagsinuse         1023.884350                       # Cycle average of tags in use
system.cpu0.dcache.tags.total_refs            3620224                       # Total number of references to valid blocks.
system.cpu0.dcache.tags.warmup_cycle           218000                       # Cycle when the warmup percentage was hit.
system.cpu0.dcache.writebacks::.writebacks        39492                       # number of writebacks
system.cpu0.dcache.writebacks::total            39492                       # number of writebacks
system.cpu0.dtb.rdAccesses                    2755590                       # TLB accesses on read requests
system.cpu0.dtb.rdMisses                          904                       # TLB misses on read requests
system.cpu0.dtb.walker.pwrStateResidencyTicks::UNDEFINED 2004775801000                       # Cumulative time (in ticks) in various power states
system.cpu0.dtb.wrAccesses                     864634                       # TLB accesses on write requests
system.cpu0.dtb.wrMisses                           94                       # TLB misses on write requests
system.cpu0.icache.ReadReq_accesses::.cpu0.inst      7637661                       # number of ReadReq accesses(hits+misses)
system.cpu0.icache.ReadReq_accesses::total      7637661                       # number of ReadReq accesses(hits+misses)
system.cpu0.icache.ReadReq_avg_miss_latency::.cpu0.inst 89577.018122                       # average ReadReq miss latency
system.cpu0.icache.ReadReq_avg_miss_latency::total 89577.018122                       # average ReadReq miss latency
system.cpu0.icache.ReadReq_avg_mshr_miss_latency::.cpu0.inst 87577.018122                       # average ReadReq mshr miss latency
system.cpu0.icache.ReadReq_avg_mshr_miss_latency::total 87577.018122                       # average ReadReq mshr miss latency
system.cpu0.icache.ReadReq_hits::.cpu0.inst      7635233                       # number of ReadReq hits
system.cpu0.icache.ReadReq_hits::total        7635233                       # number of ReadReq hits
system.cpu0.icache.ReadReq_miss_latency::.cpu0.inst    217493000                       # number of ReadReq miss cycles
system.cpu0.icache.ReadReq_miss_latency::total    217493000                       # number of ReadReq miss cycles
system.cpu0.icache.ReadReq_miss_rate::.cpu0.inst     0.000318                       # miss rate for ReadReq accesses
system.cpu0.icache.ReadReq_miss_rate::total     0.000318                       # miss rate for ReadReq accesses
system.cpu0.icache.ReadReq_misses::.cpu0.inst         2428                       # number of ReadReq misses
system.cpu0.icache.ReadReq_misses::total         2428                       # number of ReadReq misses
system.cpu0.icache.ReadReq_mshr_miss_latency::.cpu0.inst    212637000                       # number of ReadReq MSHR miss cycles
system.cpu0.icache.ReadReq_mshr_miss_latency::total    212637000                       # number of ReadReq MSHR miss cycles
system.cpu0.icache.ReadReq_mshr_miss_rate::.cpu0.inst     0.000318                       # mshr miss rate for ReadReq accesses
system.cpu0.icache.ReadReq_mshr_miss_rate::total     0.000318                       # mshr miss rate for ReadReq accesses
system.cpu0.icache.ReadReq_mshr_misses::.cpu0.inst         2428                       # number of ReadReq MSHR misses
system.cpu0.icache.ReadReq_mshr_misses::total         2428                       # number of ReadReq MSHR misses
system.cpu0.icache.avg_blocked_cycles::no_mshrs          nan                       # average number of cycles each access was blocked
system.cpu0.icache.avg_blocked_cycles::no_targets          nan                       # average number of cycles each access was blocked
system.cpu0.icache.blocked::no_mshrs                0                       # number of cycles access was blocked
system.cpu0.icache.blocked::no_targets              0                       # number of cycles access was blocked
system.cpu0.icache.blocked_cycles::no_mshrs            0                       # number of cycles access was blocked
system.cpu0.icache.blocked_cycles::no_targets            0                       # number of cycles access was blocked
system.cpu0.icache.demand_accesses::.cpu0.inst      7637661                       # number of demand (read+write) accesses
system.cpu0.icache.demand_accesses::total      7637661                       # number of demand (read+write) accesses
system.cpu0.icache.demand_avg_miss_latency::.cpu0.inst 89577.018122                       # average overall miss latency
system.cpu0.icache.demand_avg_miss_latency::total 89577.018122                       # average overall miss latency
system.cpu0.icache.demand_avg_mshr_miss_latency::.cpu0.inst 87577.018122                       # average overall mshr miss latency
system.cpu0.icache.demand_avg_mshr_miss_latency::total 87577.018122                       # average overall mshr miss latency
system.cpu0.icache.demand_hits::.cpu0.inst      7635233                       # number of demand (read+write) hits
system.cpu0.icache.demand_hits::total         7635233                       # number of demand (read+write) hits
system.cpu0.icache.demand_miss_latency::.cpu0.inst    217493000                       # number of demand (read+write) miss cycles
system.cpu0.icache.demand_miss_latency::total    217493000                       # number of demand (read+write) miss cycles
system.cpu0.icache.demand_miss_rate::.cpu0.inst     0.000318                       # miss rate for demand accesses
system.cpu0.icache.demand_miss_rate::total     0.000318                       # miss rate for demand accesses
system.cpu0.icache.demand_misses::.cpu0.inst         2428                       # number of demand (read+write) misses
system.cpu0.icache.demand_misses::total          2428                       # number of demand (read+write) misses
system.cpu0.icache.demand_mshr_miss_latency::.cpu0.inst    212637000                       # number of demand (read+write) MSHR miss cycles
system.cpu0.icache.demand_mshr_miss_latency::total    212637000                       # number of demand (read+write) MSHR miss cycles
system.cpu0.icache.demand_mshr_miss_rate::.cpu0.inst     0.000318                       # mshr miss rate for demand accesses
system.cpu0.icache.demand_mshr_miss_rate::total     0.000318                       # mshr miss rate for demand accesses
system.cpu0.icache.demand_mshr_misses::.cpu0.inst         2428                       # number of demand (read+write) MSHR misses
system.cpu0.icache.demand_mshr_misses::total         2428                       # number of demand (read+write) MSHR misses
system.cpu0.icache.overall_accesses::.cpu0.inst      7637661                       # number of overall (read+write) accesses
system.cpu0.icache.overall_accesses::total      7637661                       # number of overall (read+write) accesses
system.cpu0.icache.overall_avg_miss_latency::.cpu0.inst 89577.018122                       # average overall miss latency
system.cpu0.icache.overall_avg_miss_latency::total 89577.018122                       # average overall miss latency
system.cpu0.icache.overall_avg_mshr_miss_latency::.cpu0.inst 87577.018122                       # average overall mshr miss latency
system.cpu0.icache.overall_avg_mshr_miss_latency::total 87577.018122                       # average overall mshr miss latency
system.cpu0.icache.overall_hits::.cpu0.inst      7635233                       # number of overall hits
system.cpu0.icache.overall_hits::total        7635233                       # number of overall hits
system.cpu0.icache.overall_miss_latency::.cpu0.inst    217493000                       # number of overall miss cycles
system.cpu0.icache.overall_miss_latency::total    217493000                       # number of overall miss cycles
system.cpu0.icache.overall_miss_rate::.cpu0.inst     0.000318                       # miss rate for overall accesses
system.cpu0.icache.overall_miss_rate::total     0.000318                       # miss rate for overall accesses
system.cpu0.icache.overall_misses::.cpu0.inst         2428                       # number of overall misses
system.cpu0.icache.overall_misses::total         2428                       # number of overall misses
system.cpu0.icache.overall_mshr_miss_latency::.cpu0.inst    212637000                       # number of overall MSHR miss cycles
system.cpu0.icache.overall_mshr_miss_latency::total    212637000                       # number of overall MSHR miss cycles
system.cpu0.icache.overall_mshr_miss_rate::.cpu0.inst     0.000318                       # mshr miss rate for overall accesses
system.cpu0.icache.overall_mshr_miss_rate::total     0.000318                       # mshr miss rate for overall accesses
system.cpu0.icache.overall_mshr_misses::.cpu0.inst         2428                       # number of overall MSHR misses
system.cpu0.icache.overall_mshr_misses::total         2428                       # number of overall MSHR misses
system.cpu0.icache.pwrStateResidencyTicks::UNDEFINED 2004775801000                       # Cumulative time (in ticks) in various power states
system.cpu0.icache.replacements                  2172                       # number of replacements
system.cpu0.icache.tags.age_task_id_blocks_1024::4          256                       # Occupied blocks per task id
system.cpu0.icache.tags.avg_refs          3145.659390                       # Average number of references to valid blocks.
system.cpu0.icache.tags.data_accesses        15277750                       # Number of data accesses
system.cpu0.icache.tags.occ_blocks::.cpu0.inst   255.985730                       # Average occupied blocks per requestor
system.cpu0.icache.tags.occ_percent::.cpu0.inst     0.999944                       # Average percentage of cache occupancy
system.cpu0.icache.tags.occ_percent::total     0.999944                       # Average percentage of cache occupancy
system.cpu0.icache.tags.occ_task_id_blocks::1024          256                       # Occupied blocks per task id
system.cpu0.icache.tags.occ_task_id_percent::1024            1                       # Percentage of cache occupancy per task id
system.cpu0.icache.tags.pwrStateResidencyTicks::UNDEFINED 2004775801000                       # Cumulative time (in ticks) in various power states
system.cpu0.icache.tags.sampled_refs             2428                       # Sample count of references to valid blocks.
system.cpu0.icache.tags.tag_accesses         15277750                       # Number of tag accesses
system.cpu0.icache.tags.tagsinuse          255.985730                       # Cycle average of tags in use
system.cpu0.icache.tags.total_refs            7637661                       # Total number of references to valid blocks.
system.cpu0.icache.tags.warmup_cycle           107000                       # Cycle when the warmup percentage was hit.
system.cpu0.idle_fraction                    0.986638                       # Percentage of idle cycles
system.cpu0.interrupts.clk_domain.clock         16000                       # Clock period in ticks
system.cpu0.interrupts.pwrStateResidencyTicks::UNDEFINED 2004775801000                       # Cumulative time (in ticks) in various power states
system.cpu0.itb.rdAccesses                          0                       # TLB accesses on read requests
system.cpu0.itb.rdMisses                            0                       # TLB misses on read requests
system.cpu0.itb.walker.pwrStateResidencyTicks::UNDEFINED 2004775801000                       # Cumulative time (in ticks) in various power states
system.cpu0.itb.wrAccesses                    7637661                       # TLB accesses on write requests
system.cpu0.itb.wrMisses                          287                       # TLB misses on write requests
system.cpu0.not_idle_fraction                0.013362                       # Percentage of non-idle cycles
system.cpu0.numCycles                        26788142                       # number of cpu cycles simulated
system.cpu0.numWorkItemsCompleted                   0                       # number of work items this cpu completed
system.cpu0.numWorkItemsStarted                     0                       # number of work items this cpu started
system.cpu0.num_busy_cycles              357947.532813                       # Number of busy cycles
system.cpu0.num_cc_register_reads             4749425                       # number of times the CC registers were read
system.cpu0.num_cc_register_writes            3541138                       # number of times the CC registers were written
system.cpu0.num_conditional_control_insts       795884                       # number of instructions that are conditional controls
system.cpu0.num_fp_alu_accesses                 73417                       # Number of float alu accesses
system.cpu0.num_fp_insts                        73417                       # number of float instructions
system.cpu0.num_fp_register_reads              100729                       # number of times the floating registers were read
system.cpu0.num_fp_register_writes              53576                       # number of times the floating registers were written
system.cpu0.num_func_calls                      18272                       # number of times a function call or return occured
system.cpu0.num_idle_cycles              26430194.467187                       # Number of idle cycles
system.cpu0.num_int_alu_accesses             10989694                       # Number of integer alu accesses
system.cpu0.num_int_insts                    10989694                       # number of integer instructions
system.cpu0.num_int_register_reads           22870938                       # number of times the integer registers were read
system.cpu0.num_int_register_writes           8959543                       # number of times the integer registers were written
system.cpu0.num_load_insts                    2755564                       # Number of load instructions
system.cpu0.num_mem_refs                      3620188                       # number of memory refs
system.cpu0.num_store_insts                    864624                       # Number of store instructions
system.cpu0.num_vec_alu_accesses                    0                       # Number of vector alu accesses
system.cpu0.num_vec_insts                           0                       # number of vector instructions
system.cpu0.num_vec_register_reads                  0                       # number of times the vector registers were read
system.cpu0.num_vec_register_writes                 0                       # number of times the vector registers were written
system.cpu0.op_class::No_OpClass                19405      0.18%      0.18% # Class of executed instruction
system.cpu0.op_class::IntAlu                  7327035     66.35%     66.53% # Class of executed instruction
system.cpu0.op_class::IntMult                     415      0.00%     66.53% # Class of executed instruction
system.cpu0.op_class::IntDiv                    34769      0.31%     66.85% # Class of executed instruction
system.cpu0.op_class::FloatAdd                   2884      0.03%     66.87% # Class of executed instruction
system.cpu0.op_class::FloatCmp                      0      0.00%     66.87% # Class of executed instruction
system.cpu0.op_class::FloatCvt                   1344      0.01%     66.88% # Class of executed instruction
system.cpu0.op_class::FloatMult                     0      0.00%     66.88% # Class of executed instruction
system.cpu0.op_class::FloatMultAcc                  0      0.00%     66.88% # Class of executed instruction
system.cpu0.op_class::FloatDiv                      0      0.00%     66.88% # Class of executed instruction
system.cpu0.op_class::FloatMisc                     0      0.00%     66.88% # Class of executed instruction
system.cpu0.op_class::FloatSqrt                     0      0.00%     66.88% # Class of executed instruction
system.cpu0.op_class::SimdAdd                    6146      0.06%     66.94% # Class of executed instruction
system.cpu0.op_class::SimdAddAcc                    0      0.00%     66.94% # Class of executed instruction
system.cpu0.op_class::SimdAlu                   11116      0.10%     67.04% # Class of executed instruction
system.cpu0.op_class::SimdCmp                       0      0.00%     67.04% # Class of executed instruction
system.cpu0.op_class::SimdCvt                   12010      0.11%     67.15% # Class of executed instruction
system.cpu0.op_class::SimdMisc                   6520      0.06%     67.21% # Class of executed instruction
system.cpu0.op_class::SimdMult                      0      0.00%     67.21% # Class of executed instruction
system.cpu0.op_class::SimdMultAcc                   0      0.00%     67.21% # Class of executed instruction
system.cpu0.op_class::SimdShift                  1018      0.01%     67.22% # Class of executed instruction
system.cpu0.op_class::SimdShiftAcc                  0      0.00%     67.22% # Class of executed instruction
system.cpu0.op_class::SimdDiv                       0      0.00%     67.22% # Class of executed instruction
system.cpu0.op_class::SimdSqrt                      0      0.00%     67.22% # Class of executed instruction
system.cpu0.op_class::SimdFloatAdd                  0      0.00%     67.22% # Class of executed instruction
system.cpu0.op_class::SimdFloatAlu                  0      0.00%     67.22% # Class of executed instruction
system.cpu0.op_class::SimdFloatCmp                  0      0.00%     67.22% # Class of executed instruction
system.cpu0.op_class::SimdFloatCvt                  0      0.00%     67.22% # Class of executed instruction
system.cpu0.op_class::SimdFloatDiv                  0      0.00%     67.22% # Class of executed instruction
system.cpu0.op_class::SimdFloatMisc                 0      0.00%     67.22% # Class of executed instruction
system.cpu0.op_class::SimdFloatMult                 0      0.00%     67.22% # Class of executed instruction
system.cpu0.op_class::SimdFloatMultAcc              0      0.00%     67.22% # Class of executed instruction
system.cpu0.op_class::SimdFloatSqrt                 0      0.00%     67.22% # Class of executed instruction
system.cpu0.op_class::SimdReduceAdd                 0      0.00%     67.22% # Class of executed instruction
system.cpu0.op_class::SimdReduceAlu                 0      0.00%     67.22% # Class of executed instruction
system.cpu0.op_class::SimdReduceCmp                 0      0.00%     67.22% # Class of executed instruction
system.cpu0.op_class::SimdFloatReduceAdd            0      0.00%     67.22% # Class of executed instruction
system.cpu0.op_class::SimdFloatReduceCmp            0      0.00%     67.22% # Class of executed instruction
system.cpu0.op_class::SimdAes                       0      0.00%     67.22% # Class of executed instruction
system.cpu0.op_class::SimdAesMix                    0      0.00%     67.22% # Class of executed instruction
system.cpu0.op_class::SimdSha1Hash                  0      0.00%     67.22% # Class of executed instruction
system.cpu0.op_class::SimdSha1Hash2                 0      0.00%     67.22% # Class of executed instruction
system.cpu0.op_class::SimdSha256Hash                0      0.00%     67.22% # Class of executed instruction
system.cpu0.op_class::SimdSha256Hash2               0      0.00%     67.22% # Class of executed instruction
system.cpu0.op_class::SimdShaSigma2                 0      0.00%     67.22% # Class of executed instruction
system.cpu0.op_class::SimdShaSigma3                 0      0.00%     67.22% # Class of executed instruction
system.cpu0.op_class::SimdPredAlu                   0      0.00%     67.22% # Class of executed instruction
system.cpu0.op_class::MemRead                 2736256     24.78%     92.00% # Class of executed instruction
system.cpu0.op_class::MemWrite                 852271      7.72%     99.71% # Class of executed instruction
system.cpu0.op_class::FloatMemRead              19308      0.17%     99.89% # Class of executed instruction
system.cpu0.op_class::FloatMemWrite             12353      0.11%    100.00% # Class of executed instruction
system.cpu0.op_class::IprAccess                     0      0.00%    100.00% # Class of executed instruction
system.cpu0.op_class::InstPrefetch                  0      0.00%    100.00% # Class of executed instruction
system.cpu0.op_class::total                  11042850                       # Class of executed instruction
system.cpu0.pwrStateResidencyTicks::ON   2004775801000                       # Cumulative time (in ticks) in various power states
system.cpu0.workload.numSyscalls                   59                       # Number of system calls
system.cpu1.Branches                         21306402                       # Number of branches fetched
system.cpu1.committedInsts                  180265077                       # Number of instructions committed
system.cpu1.committedOps                    297081952                       # Number of ops (including micro ops) committed
system.cpu1.dcache.ReadReq_accesses::.cpu1.data     52908252                       # number of ReadReq accesses(hits+misses)
system.cpu1.dcache.ReadReq_accesses::total     52908252                       # number of ReadReq accesses(hits+misses)
system.cpu1.dcache.ReadReq_avg_miss_latency::.cpu1.data 134179.325128                       # average ReadReq miss latency
system.cpu1.dcache.ReadReq_avg_miss_latency::total 134179.325128                       # average ReadReq miss latency
system.cpu1.dcache.ReadReq_avg_mshr_miss_latency::.cpu1.data 132179.325128                       # average ReadReq mshr miss latency
system.cpu1.dcache.ReadReq_avg_mshr_miss_latency::total 132179.325128                       # average ReadReq mshr miss latency
system.cpu1.dcache.ReadReq_hits::.cpu1.data     42410610                       # number of ReadReq hits
system.cpu1.dcache.ReadReq_hits::total       42410610                       # number of ReadReq hits
system.cpu1.dcache.ReadReq_miss_latency::.cpu1.data 1408566519000                       # number of ReadReq miss cycles
system.cpu1.dcache.ReadReq_miss_latency::total 1408566519000                       # number of ReadReq miss cycles
system.cpu1.dcache.ReadReq_miss_rate::.cpu1.data     0.198412                       # miss rate for ReadReq accesses
system.cpu1.dcache.ReadReq_miss_rate::total     0.198412                       # miss rate for ReadReq accesses
system.cpu1.dcache.ReadReq_misses::.cpu1.data     10497642                       # number of ReadReq misses
system.cpu1.dcache.ReadReq_misses::total     10497642                       # number of ReadReq misses
system.cpu1.dcache.ReadReq_mshr_miss_latency::.cpu1.data 1387571235000                       # number of ReadReq MSHR miss cycles
system.cpu1.dcache.ReadReq_mshr_miss_latency::total 1387571235000                       # number of ReadReq MSHR miss cycles
system.cpu1.dcache.ReadReq_mshr_miss_rate::.cpu1.data     0.198412                       # mshr miss rate for ReadReq accesses
system.cpu1.dcache.ReadReq_mshr_miss_rate::total     0.198412                       # mshr miss rate for ReadReq accesses
system.cpu1.dcache.ReadReq_mshr_misses::.cpu1.data     10497642                       # number of ReadReq MSHR misses
system.cpu1.dcache.ReadReq_mshr_misses::total     10497642                       # number of ReadReq MSHR misses
system.cpu1.dcache.WriteReq_accesses::.cpu1.data     21137204                       # number of WriteReq accesses(hits+misses)
system.cpu1.dcache.WriteReq_accesses::total     21137204                       # number of WriteReq accesses(hits+misses)
system.cpu1.dcache.WriteReq_avg_miss_latency::.cpu1.data 98789.990645                       # average WriteReq miss latency
system.cpu1.dcache.WriteReq_avg_miss_latency::total 98789.990645                       # average WriteReq miss latency
system.cpu1.dcache.WriteReq_avg_mshr_miss_latency::.cpu1.data 96789.990645                       # average WriteReq mshr miss latency
system.cpu1.dcache.WriteReq_avg_mshr_miss_latency::total 96789.990645                       # average WriteReq mshr miss latency
system.cpu1.dcache.WriteReq_hits::.cpu1.data     21135066                       # number of WriteReq hits
system.cpu1.dcache.WriteReq_hits::total      21135066                       # number of WriteReq hits
system.cpu1.dcache.WriteReq_miss_latency::.cpu1.data    211213000                       # number of WriteReq miss cycles
system.cpu1.dcache.WriteReq_miss_latency::total    211213000                       # number of WriteReq miss cycles
system.cpu1.dcache.WriteReq_miss_rate::.cpu1.data     0.000101                       # miss rate for WriteReq accesses
system.cpu1.dcache.WriteReq_miss_rate::total     0.000101                       # miss rate for WriteReq accesses
system.cpu1.dcache.WriteReq_misses::.cpu1.data         2138                       # number of WriteReq misses
system.cpu1.dcache.WriteReq_misses::total         2138                       # number of WriteReq misses
system.cpu1.dcache.WriteReq_mshr_miss_latency::.cpu1.data    206937000                       # number of WriteReq MSHR miss cycles
system.cpu1.dcache.WriteReq_mshr_miss_latency::total    206937000                       # number of WriteReq MSHR miss cycles
system.cpu1.dcache.WriteReq_mshr_miss_rate::.cpu1.data     0.000101                       # mshr miss rate for WriteReq accesses
system.cpu1.dcache.WriteReq_mshr_miss_rate::total     0.000101                       # mshr miss rate for WriteReq accesses
system.cpu1.dcache.WriteReq_mshr_misses::.cpu1.data         2138                       # number of WriteReq MSHR misses
system.cpu1.dcache.WriteReq_mshr_misses::total         2138                       # number of WriteReq MSHR misses
system.cpu1.dcache.avg_blocked_cycles::no_mshrs          nan                       # average number of cycles each access was blocked
system.cpu1.dcache.avg_blocked_cycles::no_targets          nan                       # average number of cycles each access was blocked
system.cpu1.dcache.blocked::no_mshrs                0                       # number of cycles access was blocked
system.cpu1.dcache.blocked::no_targets              0                       # number of cycles access was blocked
system.cpu1.dcache.blocked_cycles::no_mshrs            0                       # number of cycles access was blocked
system.cpu1.dcache.blocked_cycles::no_targets            0                       # number of cycles access was blocked
system.cpu1.dcache.demand_accesses::.cpu1.data     74045456                       # number of demand (read+write) accesses
system.cpu1.dcache.demand_accesses::total     74045456                       # number of demand (read+write) accesses
system.cpu1.dcache.demand_avg_miss_latency::.cpu1.data 134172.119035                       # average overall miss latency
system.cpu1.dcache.demand_avg_miss_latency::total 134172.119035                       # average overall miss latency
system.cpu1.dcache.demand_avg_mshr_miss_latency::.cpu1.data 132172.119035                       # average overall mshr miss latency
system.cpu1.dcache.demand_avg_mshr_miss_latency::total 132172.119035                       # average overall mshr miss latency
system.cpu1.dcache.demand_hits::.cpu1.data     63545676                       # number of demand (read+write) hits
system.cpu1.dcache.demand_hits::total        63545676                       # number of demand (read+write) hits
system.cpu1.dcache.demand_miss_latency::.cpu1.data 1408777732000                       # number of demand (read+write) miss cycles
system.cpu1.dcache.demand_miss_latency::total 1408777732000                       # number of demand (read+write) miss cycles
system.cpu1.dcache.demand_miss_rate::.cpu1.data     0.141802                       # miss rate for demand accesses
system.cpu1.dcache.demand_miss_rate::total     0.141802                       # miss rate for demand accesses
system.cpu1.dcache.demand_misses::.cpu1.data     10499780                       # number of demand (read+write) misses
system.cpu1.dcache.demand_misses::total      10499780                       # number of demand (read+write) misses
system.cpu1.dcache.demand_mshr_miss_latency::.cpu1.data 1387778172000                       # number of demand (read+write) MSHR miss cycles
system.cpu1.dcache.demand_mshr_miss_latency::total 1387778172000                       # number of demand (read+write) MSHR miss cycles
system.cpu1.dcache.demand_mshr_miss_rate::.cpu1.data     0.141802                       # mshr miss rate for demand accesses
system.cpu1.dcache.demand_mshr_miss_rate::total     0.141802                       # mshr miss rate for demand accesses
system.cpu1.dcache.demand_mshr_misses::.cpu1.data     10499780                       # number of demand (read+write) MSHR misses
system.cpu1.dcache.demand_mshr_misses::total     10499780                       # number of demand (read+write) MSHR misses
system.cpu1.dcache.overall_accesses::.cpu1.data     74045456                       # number of overall (read+write) accesses
system.cpu1.dcache.overall_accesses::total     74045456                       # number of overall (read+write) accesses
system.cpu1.dcache.overall_avg_miss_latency::.cpu1.data 134172.119035                       # average overall miss latency
system.cpu1.dcache.overall_avg_miss_latency::total 134172.119035                       # average overall miss latency
system.cpu1.dcache.overall_avg_mshr_miss_latency::.cpu1.data 132172.119035                       # average overall mshr miss latency
system.cpu1.dcache.overall_avg_mshr_miss_latency::total 132172.119035                       # average overall mshr miss latency
system.cpu1.dcache.overall_hits::.cpu1.data     63545676                       # number of overall hits
system.cpu1.dcache.overall_hits::total       63545676                       # number of overall hits
system.cpu1.dcache.overall_miss_latency::.cpu1.data 1408777732000                       # number of overall miss cycles
system.cpu1.dcache.overall_miss_latency::total 1408777732000                       # number of overall miss cycles
system.cpu1.dcache.overall_miss_rate::.cpu1.data     0.141802                       # miss rate for overall accesses
system.cpu1.dcache.overall_miss_rate::total     0.141802                       # miss rate for overall accesses
system.cpu1.dcache.overall_misses::.cpu1.data     10499780                       # number of overall misses
system.cpu1.dcache.overall_misses::total     10499780                       # number of overall misses
system.cpu1.dcache.overall_mshr_miss_latency::.cpu1.data 1387778172000                       # number of overall MSHR miss cycles
system.cpu1.dcache.overall_mshr_miss_latency::total 1387778172000                       # number of overall MSHR miss cycles
system.cpu1.dcache.overall_mshr_miss_rate::.cpu1.data     0.141802                       # mshr miss rate for overall accesses
system.cpu1.dcache.overall_mshr_miss_rate::total     0.141802                       # mshr miss rate for overall accesses
system.cpu1.dcache.overall_mshr_misses::.cpu1.data     10499780                       # number of overall MSHR misses
system.cpu1.dcache.overall_mshr_misses::total     10499780                       # number of overall MSHR misses
system.cpu1.dcache.pwrStateResidencyTicks::UNDEFINED 2004775801000                       # Cumulative time (in ticks) in various power states
system.cpu1.dcache.replacements              10498756                       # number of replacements
system.cpu1.dcache.tags.age_task_id_blocks_1024::3         1023                       # Occupied blocks per task id
system.cpu1.dcache.tags.age_task_id_blocks_1024::4            1                       # Occupied blocks per task id
system.cpu1.dcache.tags.avg_refs             7.052096                       # Average number of references to valid blocks.
system.cpu1.dcache.tags.data_accesses       158590692                       # Number of data accesses
system.cpu1.dcache.tags.occ_blocks::.cpu1.data  1023.894263                       # Average occupied blocks per requestor
system.cpu1.dcache.tags.occ_percent::.cpu1.data     0.999897                       # Average percentage of cache occupancy
system.cpu1.dcache.tags.occ_percent::total     0.999897                       # Average percentage of cache occupancy
system.cpu1.dcache.tags.occ_task_id_blocks::1024         1024                       # Occupied blocks per task id
system.cpu1.dcache.tags.occ_task_id_percent::1024            1                       # Percentage of cache occupancy per task id
system.cpu1.dcache.tags.pwrStateResidencyTicks::UNDEFINED 2004775801000                       # Cumulative time (in ticks) in various power states
system.cpu1.dcache.tags.sampled_refs         10499780                       # Sample count of references to valid blocks.
system.cpu1.dcache.tags.tag_accesses        158590692                       # Number of tag accesses
system.cpu1.dcache.tags.tagsinuse         1023.894263                       # Cycle average of tags in use
system.cpu1.dcache.tags.total_refs           74045456                       # Total number of references to valid blocks.
system.cpu1.dcache.tags.warmup_cycle           225000                       # Cycle when the warmup percentage was hit.
system.cpu1.dcache.writebacks::.writebacks     10487629                       # number of writebacks
system.cpu1.dcache.writebacks::total         10487629                       # number of writebacks
system.cpu1.dtb.rdAccesses                   52908252                       # TLB accesses on read requests
system.cpu1.dtb.rdMisses                       164724                       # TLB misses on read requests
system.cpu1.dtb.walker.pwrStateResidencyTicks::UNDEFINED 2004775801000                       # Cumulative time (in ticks) in various power states
system.cpu1.dtb.wrAccesses                   21137204                       # TLB accesses on write requests
system.cpu1.dtb.wrMisses                           65                       # TLB misses on write requests
system.cpu1.icache.ReadReq_accesses::.cpu1.inst    233364309                       # number of ReadReq accesses(hits+misses)
system.cpu1.icache.ReadReq_accesses::total    233364309                       # number of ReadReq accesses(hits+misses)
system.cpu1.icache.ReadReq_avg_miss_latency::.cpu1.inst 87190.454750                       # average ReadReq miss latency
system.cpu1.icache.ReadReq_avg_miss_latency::total 87190.454750                       # average ReadReq miss latency
system.cpu1.icache.ReadReq_avg_mshr_miss_latency::.cpu1.inst 85190.454750                       # average ReadReq mshr miss latency
system.cpu1.icache.ReadReq_avg_mshr_miss_latency::total 85190.454750                       # average ReadReq mshr miss latency
system.cpu1.icache.ReadReq_hits::.cpu1.inst    233362088                       # number of ReadReq hits
system.cpu1.icache.ReadReq_hits::total      233362088                       # number of ReadReq hits
system.cpu1.icache.ReadReq_miss_latency::.cpu1.inst    193650000                       # number of ReadReq miss cycles
system.cpu1.icache.ReadReq_miss_latency::total    193650000                       # number of ReadReq miss cycles
system.cpu1.icache.ReadReq_miss_rate::.cpu1.inst     0.000010                       # miss rate for ReadReq accesses
system.cpu1.icache.ReadReq_miss_rate::total     0.000010                       # miss rate for ReadReq accesses
system.cpu1.icache.ReadReq_misses::.cpu1.inst         2221                       # number of ReadReq misses
system.cpu1.icache.ReadReq_misses::total         2221                       # number of ReadReq misses
system.cpu1.icache.ReadReq_mshr_miss_latency::.cpu1.inst    189208000                       # number of ReadReq MSHR miss cycles
system.cpu1.icache.ReadReq_mshr_miss_latency::total    189208000                       # number of ReadReq MSHR miss cycles
system.cpu1.icache.ReadReq_mshr_miss_rate::.cpu1.inst     0.000010                       # mshr miss rate for ReadReq accesses
system.cpu1.icache.ReadReq_mshr_miss_rate::total     0.000010                       # mshr miss rate for ReadReq accesses
system.cpu1.icache.ReadReq_mshr_misses::.cpu1.inst         2221                       # number of ReadReq MSHR misses
system.cpu1.icache.ReadReq_mshr_misses::total         2221                       # number of ReadReq MSHR misses
system.cpu1.icache.avg_blocked_cycles::no_mshrs          nan                       # average number of cycles each access was blocked
system.cpu1.icache.avg_blocked_cycles::no_targets          nan                       # average number of cycles each access was blocked
system.cpu1.icache.blocked::no_mshrs                0                       # number of cycles access was blocked
system.cpu1.icache.blocked::no_targets              0                       # number of cycles access was blocked
system.cpu1.icache.blocked_cycles::no_mshrs            0                       # number of cycles access was blocked
system.cpu1.icache.blocked_cycles::no_targets            0                       # number of cycles access was blocked
system.cpu1.icache.demand_accesses::.cpu1.inst    233364309                       # number of demand (read+write) accesses
system.cpu1.icache.demand_accesses::total    233364309                       # number of demand (read+write) accesses
system.cpu1.icache.demand_avg_miss_latency::.cpu1.inst 87190.454750                       # average overall miss latency
system.cpu1.icache.demand_avg_miss_latency::total 87190.454750                       # average overall miss latency
system.cpu1.icache.demand_avg_mshr_miss_latency::.cpu1.inst 85190.454750                       # average overall mshr miss latency
system.cpu1.icache.demand_avg_mshr_miss_latency::total 85190.454750                       # average overall mshr miss latency
system.cpu1.icache.demand_hits::.cpu1.inst    233362088                       # number of demand (read+write) hits
system.cpu1.icache.demand_hits::total       233362088                       # number of demand (read+write) hits
system.cpu1.icache.demand_miss_latency::.cpu1.inst    193650000                       # number of demand (read+write) miss cycles
system.cpu1.icache.demand_miss_latency::total    193650000                       # number of demand (read+write) miss cycles
system.cpu1.icache.demand_miss_rate::.cpu1.inst     0.000010                       # miss rate for demand accesses
system.cpu1.icache.demand_miss_rate::total     0.000010                       # miss rate for demand accesses
system.cpu1.icache.demand_misses::.cpu1.inst         2221                       # number of demand (read+write) misses
system.cpu1.icache.demand_misses::total          2221                       # number of demand (read+write) misses
system.cpu1.icache.demand_mshr_miss_latency::.cpu1.inst    189208000                       # number of demand (read+write) MSHR miss cycles
system.cpu1.icache.demand_mshr_miss_latency::total    189208000                       # number of demand (read+write) MSHR miss cycles
system.cpu1.icache.demand_mshr_miss_rate::.cpu1.inst     0.000010                       # mshr miss rate for demand accesses
system.cpu1.icache.demand_mshr_miss_rate::total     0.000010                       # mshr miss rate for demand accesses
system.cpu1.icache.demand_mshr_misses::.cpu1.inst         2221                       # number of demand (read+write) MSHR misses
system.cpu1.icache.demand_mshr_misses::total         2221                       # number of demand (read+write) MSHR misses
system.cpu1.icache.overall_accesses::.cpu1.inst    233364309                       # number of overall (read+write) accesses
system.cpu1.icache.overall_accesses::total    233364309                       # number of overall (read+write) accesses
system.cpu1.icache.overall_avg_miss_latency::.cpu1.inst 87190.454750                       # average overall miss latency
system.cpu1.icache.overall_avg_miss_latency::total 87190.454750                       # average overall miss latency
system.cpu1.icache.overall_avg_mshr_miss_latency::.cpu1.inst 85190.454750                       # average overall mshr miss latency
system.cpu1.icache.overall_avg_mshr_miss_latency::total 85190.454750                       # average overall mshr miss latency
system.cpu1.icache.overall_hits::.cpu1.inst    233362088                       # number of overall hits
system.cpu1.icache.overall_hits::total      233362088                       # number of overall hits
system.cpu1.icache.overall_miss_latency::.cpu1.inst    193650000                       # number of overall miss cycles
system.cpu1.icache.overall_miss_latency::total    193650000                       # number of overall miss cycles
system.cpu1.icache.overall_miss_rate::.cpu1.inst     0.000010                       # miss rate for overall accesses
system.cpu1.icache.overall_miss_rate::total     0.000010                       # miss rate for overall accesses
system.cpu1.icache.overall_misses::.cpu1.inst         2221                       # number of overall misses
system.cpu1.icache.overall_misses::total         2221                       # number of overall misses
system.cpu1.icache.overall_mshr_miss_latency::.cpu1.inst    189208000                       # number of overall MSHR miss cycles
system.cpu1.icache.overall_mshr_miss_latency::total    189208000                       # number of overall MSHR miss cycles
system.cpu1.icache.overall_mshr_miss_rate::.cpu1.inst     0.000010                       # mshr miss rate for overall accesses
system.cpu1.icache.overall_mshr_miss_rate::total     0.000010                       # mshr miss rate for overall accesses
system.cpu1.icache.overall_mshr_misses::.cpu1.inst         2221                       # number of overall MSHR misses
system.cpu1.icache.overall_mshr_misses::total         2221                       # number of overall MSHR misses
system.cpu1.icache.pwrStateResidencyTicks::UNDEFINED 2004775801000                       # Cumulative time (in ticks) in various power states
system.cpu1.icache.replacements                  1965                       # number of replacements
system.cpu1.icache.tags.age_task_id_blocks_1024::3          115                       # Occupied blocks per task id
system.cpu1.icache.tags.age_task_id_blocks_1024::4          141                       # Occupied blocks per task id
system.cpu1.icache.tags.avg_refs         105071.728501                       # Average number of references to valid blocks.
system.cpu1.icache.tags.data_accesses       466730839                       # Number of data accesses
system.cpu1.icache.tags.occ_blocks::.cpu1.inst   255.982416                       # Average occupied blocks per requestor
system.cpu1.icache.tags.occ_percent::.cpu1.inst     0.999931                       # Average percentage of cache occupancy
system.cpu1.icache.tags.occ_percent::total     0.999931                       # Average percentage of cache occupancy
system.cpu1.icache.tags.occ_task_id_blocks::1024          256                       # Occupied blocks per task id
system.cpu1.icache.tags.occ_task_id_percent::1024            1                       # Percentage of cache occupancy per task id
system.cpu1.icache.tags.pwrStateResidencyTicks::UNDEFINED 2004775801000                       # Cumulative time (in ticks) in various power states
system.cpu1.icache.tags.sampled_refs             2221                       # Sample count of references to valid blocks.
system.cpu1.icache.tags.tag_accesses        466730839                       # Number of tag accesses
system.cpu1.icache.tags.tagsinuse          255.982416                       # Cycle average of tags in use
system.cpu1.icache.tags.total_refs          233364309                       # Total number of references to valid blocks.
system.cpu1.icache.tags.warmup_cycle           114000                       # Cycle when the warmup percentage was hit.
system.cpu1.idle_fraction                    0.000992                       # Percentage of idle cycles
system.cpu1.interrupts.clk_domain.clock         16000                       # Clock period in ticks
system.cpu1.interrupts.pwrStateResidencyTicks::UNDEFINED 2004775801000                       # Cumulative time (in ticks) in various power states
system.cpu1.itb.rdAccesses                          0                       # TLB accesses on read requests
system.cpu1.itb.rdMisses                            0                       # TLB misses on read requests
system.cpu1.itb.walker.pwrStateResidencyTicks::UNDEFINED 2004775801000                       # Cumulative time (in ticks) in various power states
system.cpu1.itb.wrAccesses                  233364309                       # TLB accesses on write requests
system.cpu1.itb.wrMisses                          270                       # TLB misses on write requests
system.cpu1.not_idle_fraction                0.999008                       # Percentage of non-idle cycles
system.cpu1.numCycles                      2002786874                       # number of cpu cycles simulated
system.cpu1.numWorkItemsCompleted                   0                       # number of work items this cpu completed
system.cpu1.numWorkItemsStarted                     0                       # number of work items this cpu started
system.cpu1.num_busy_cycles              2000799920.202494                       # Number of busy cycles
system.cpu1.num_cc_register_reads            75557540                       # number of times the CC registers were read
system.cpu1.num_cc_register_writes           85618886                       # number of times the CC registers were written
system.cpu1.num_conditional_control_insts     10784700                       # number of instructions that are conditional controls
system.cpu1.num_fp_alu_accesses                 70542                       # Number of float alu accesses
system.cpu1.num_fp_insts                        70542                       # number of float instructions
system.cpu1.num_fp_register_reads               97305                       # number of times the floating registers were read
system.cpu1.num_fp_register_writes              51557                       # number of times the floating registers were written
system.cpu1.num_func_calls                      17864                       # number of times a function call or return occured
system.cpu1.num_idle_cycles              1986953.797506                       # Number of idle cycles
system.cpu1.num_int_alu_accesses            297030351                       # Number of integer alu accesses
system.cpu1.num_int_insts                   297030351                       # number of integer instructions
system.cpu1.num_int_register_reads          615040479                       # number of times the integer registers were read
system.cpu1.num_int_register_writes         254646796                       # number of times the integer registers were written
system.cpu1.num_load_insts                   52908231                       # Number of load instructions
system.cpu1.num_mem_refs                     74045429                       # number of memory refs
system.cpu1.num_store_insts                  21137198                       # Number of store instructions
system.cpu1.num_vec_alu_accesses                    0                       # Number of vector alu accesses
system.cpu1.num_vec_insts                           0                       # number of vector instructions
system.cpu1.num_vec_register_reads                  0                       # number of times the vector registers were read
system.cpu1.num_vec_register_writes                 0                       # number of times the vector registers were written
system.cpu1.op_class::No_OpClass                18952      0.01%      0.01% # Class of executed instruction
system.cpu1.op_class::IntAlu                222943524     75.04%     75.05% # Class of executed instruction
system.cpu1.op_class::IntMult                      27      0.00%     75.05% # Class of executed instruction
system.cpu1.op_class::IntDiv                    34463      0.01%     75.06% # Class of executed instruction
system.cpu1.op_class::FloatAdd                   2762      0.00%     75.06% # Class of executed instruction
system.cpu1.op_class::FloatCmp                      0      0.00%     75.06% # Class of executed instruction
system.cpu1.op_class::FloatCvt                   1168      0.00%     75.06% # Class of executed instruction
system.cpu1.op_class::FloatMult                     0      0.00%     75.06% # Class of executed instruction
system.cpu1.op_class::FloatMultAcc                  0      0.00%     75.06% # Class of executed instruction
system.cpu1.op_class::FloatDiv                      0      0.00%     75.06% # Class of executed instruction
system.cpu1.op_class::FloatMisc                     0      0.00%     75.06% # Class of executed instruction
system.cpu1.op_class::FloatSqrt                     0      0.00%     75.06% # Class of executed instruction
system.cpu1.op_class::SimdAdd                    5992      0.00%     75.07% # Class of executed instruction
system.cpu1.op_class::SimdAddAcc                    0      0.00%     75.07% # Class of executed instruction
system.cpu1.op_class::SimdAlu                   10832      0.00%     75.07% # Class of executed instruction
system.cpu1.op_class::SimdCmp                       0      0.00%     75.07% # Class of executed instruction
system.cpu1.op_class::SimdCvt                   11662      0.00%     75.07% # Class of executed instruction
system.cpu1.op_class::SimdMisc                   6326      0.00%     75.08% # Class of executed instruction
system.cpu1.op_class::SimdMult                      0      0.00%     75.08% # Class of executed instruction
system.cpu1.op_class::SimdMultAcc                   0      0.00%     75.08% # Class of executed instruction
system.cpu1.op_class::SimdShift                   815      0.00%     75.08% # Class of executed instruction
system.cpu1.op_class::SimdShiftAcc                  0      0.00%     75.08% # Class of executed instruction
system.cpu1.op_class::SimdDiv                       0      0.00%     75.08% # Class of executed instruction
system.cpu1.op_class::SimdSqrt                      0      0.00%     75.08% # Class of executed instruction
system.cpu1.op_class::SimdFloatAdd                  0      0.00%     75.08% # Class of executed instruction
system.cpu1.op_class::SimdFloatAlu                  0      0.00%     75.08% # Class of executed instruction
system.cpu1.op_class::SimdFloatCmp                  0      0.00%     75.08% # Class of executed instruction
system.cpu1.op_class::SimdFloatCvt                  0      0.00%     75.08% # Class of executed instruction
system.cpu1.op_class::SimdFloatDiv                  0      0.00%     75.08% # Class of executed instruction
system.cpu1.op_class::SimdFloatMisc                 0      0.00%     75.08% # Class of executed instruction
system.cpu1.op_class::SimdFloatMult                 0      0.00%     75.08% # Class of executed instruction
system.cpu1.op_class::SimdFloatMultAcc              0      0.00%     75.08% # Class of executed instruction
system.cpu1.op_class::SimdFloatSqrt                 0      0.00%     75.08% # Class of executed instruction
system.cpu1.op_class::SimdReduceAdd                 0      0.00%     75.08% # Class of executed instruction
system.cpu1.op_class::SimdReduceAlu                 0      0.00%     75.08% # Class of executed instruction
system.cpu1.op_class::SimdReduceCmp                 0      0.00%     75.08% # Class of executed instruction
system.cpu1.op_class::SimdFloatReduceAdd            0      0.00%     75.08% # Class of executed instruction
system.cpu1.op_class::SimdFloatReduceCmp            0      0.00%     75.08% # Class of executed instruction
system.cpu1.op_class::SimdAes                       0      0.00%     75.08% # Class of executed instruction
system.cpu1.op_class::SimdAesMix                    0      0.00%     75.08% # Class of executed instruction
system.cpu1.op_class::SimdSha1Hash                  0      0.00%     75.08% # Class of executed instruction
system.cpu1.op_class::SimdSha1Hash2                 0      0.00%     75.08% # Class of executed instruction
system.cpu1.op_class::SimdSha256Hash                0      0.00%     75.08% # Class of executed instruction
system.cpu1.op_class::SimdSha256Hash2               0      0.00%     75.08% # Class of executed instruction
system.cpu1.op_class::SimdShaSigma2                 0      0.00%     75.08% # Class of executed instruction
system.cpu1.op_class::SimdShaSigma3                 0      0.00%     75.08% # Class of executed instruction
system.cpu1.op_class::SimdPredAlu                   0      0.00%     75.08% # Class of executed instruction
system.cpu1.op_class::MemRead                52889787     17.80%     92.88% # Class of executed instruction
system.cpu1.op_class::MemWrite               21125331      7.11%     99.99% # Class of executed instruction
system.cpu1.op_class::FloatMemRead              18444      0.01%    100.00% # Class of executed instruction
system.cpu1.op_class::FloatMemWrite             11867      0.00%    100.00% # Class of executed instruction
system.cpu1.op_class::IprAccess                     0      0.00%    100.00% # Class of executed instruction
system.cpu1.op_class::InstPrefetch                  0      0.00%    100.00% # Class of executed instruction
system.cpu1.op_class::total                 297081952                       # Class of executed instruction
system.cpu1.pwrStateResidencyTicks::ON   2004775801000                       # Cumulative time (in ticks) in various power states
system.cpu1.workload.numSyscalls                   57                       # Number of system calls
system.cpu2.Branches                         21306402                       # Number of branches fetched
system.cpu2.committedInsts                  180265077                       # Number of instructions committed
system.cpu2.committedOps                    297081952                       # Number of ops (including micro ops) committed
system.cpu2.dcache.ReadReq_accesses::.cpu2.data     52908252                       # number of ReadReq accesses(hits+misses)
system.cpu2.dcache.ReadReq_accesses::total     52908252                       # number of ReadReq accesses(hits+misses)
system.cpu2.dcache.ReadReq_avg_miss_latency::.cpu2.data 134063.663808                       # average ReadReq miss latency
system.cpu2.dcache.ReadReq_avg_miss_latency::total 134063.663808                       # average ReadReq miss latency
system.cpu2.dcache.ReadReq_avg_mshr_miss_latency::.cpu2.data 132063.663808                       # average ReadReq mshr miss latency
system.cpu2.dcache.ReadReq_avg_mshr_miss_latency::total 132063.663808                       # average ReadReq mshr miss latency
system.cpu2.dcache.ReadReq_hits::.cpu2.data     42410545                       # number of ReadReq hits
system.cpu2.dcache.ReadReq_hits::total       42410545                       # number of ReadReq hits
system.cpu2.dcache.ReadReq_miss_latency::.cpu2.data 1407361062000                       # number of ReadReq miss cycles
system.cpu2.dcache.ReadReq_miss_latency::total 1407361062000                       # number of ReadReq miss cycles
system.cpu2.dcache.ReadReq_miss_rate::.cpu2.data     0.198413                       # miss rate for ReadReq accesses
system.cpu2.dcache.ReadReq_miss_rate::total     0.198413                       # miss rate for ReadReq accesses
system.cpu2.dcache.ReadReq_misses::.cpu2.data     10497707                       # number of ReadReq misses
system.cpu2.dcache.ReadReq_misses::total     10497707                       # number of ReadReq misses
system.cpu2.dcache.ReadReq_mshr_miss_latency::.cpu2.data 1386365648000                       # number of ReadReq MSHR miss cycles
system.cpu2.dcache.ReadReq_mshr_miss_latency::total 1386365648000                       # number of ReadReq MSHR miss cycles
system.cpu2.dcache.ReadReq_mshr_miss_rate::.cpu2.data     0.198413                       # mshr miss rate for ReadReq accesses
system.cpu2.dcache.ReadReq_mshr_miss_rate::total     0.198413                       # mshr miss rate for ReadReq accesses
system.cpu2.dcache.ReadReq_mshr_misses::.cpu2.data     10497707                       # number of ReadReq MSHR misses
system.cpu2.dcache.ReadReq_mshr_misses::total     10497707                       # number of ReadReq MSHR misses
system.cpu2.dcache.WriteReq_accesses::.cpu2.data     21137204                       # number of WriteReq accesses(hits+misses)
system.cpu2.dcache.WriteReq_accesses::total     21137204                       # number of WriteReq accesses(hits+misses)
system.cpu2.dcache.WriteReq_avg_miss_latency::.cpu2.data 102440.305635                       # average WriteReq miss latency
system.cpu2.dcache.WriteReq_avg_miss_latency::total 102440.305635                       # average WriteReq miss latency
system.cpu2.dcache.WriteReq_avg_mshr_miss_latency::.cpu2.data 100440.305635                       # average WriteReq mshr miss latency
system.cpu2.dcache.WriteReq_avg_mshr_miss_latency::total 100440.305635                       # average WriteReq mshr miss latency
system.cpu2.dcache.WriteReq_hits::.cpu2.data     21135110                       # number of WriteReq hits
system.cpu2.dcache.WriteReq_hits::total      21135110                       # number of WriteReq hits
system.cpu2.dcache.WriteReq_miss_latency::.cpu2.data    214510000                       # number of WriteReq miss cycles
system.cpu2.dcache.WriteReq_miss_latency::total    214510000                       # number of WriteReq miss cycles
system.cpu2.dcache.WriteReq_miss_rate::.cpu2.data     0.000099                       # miss rate for WriteReq accesses
system.cpu2.dcache.WriteReq_miss_rate::total     0.000099                       # miss rate for WriteReq accesses
system.cpu2.dcache.WriteReq_misses::.cpu2.data         2094                       # number of WriteReq misses
system.cpu2.dcache.WriteReq_misses::total         2094                       # number of WriteReq misses
system.cpu2.dcache.WriteReq_mshr_miss_latency::.cpu2.data    210322000                       # number of WriteReq MSHR miss cycles
system.cpu2.dcache.WriteReq_mshr_miss_latency::total    210322000                       # number of WriteReq MSHR miss cycles
system.cpu2.dcache.WriteReq_mshr_miss_rate::.cpu2.data     0.000099                       # mshr miss rate for WriteReq accesses
system.cpu2.dcache.WriteReq_mshr_miss_rate::total     0.000099                       # mshr miss rate for WriteReq accesses
system.cpu2.dcache.WriteReq_mshr_misses::.cpu2.data         2094                       # number of WriteReq MSHR misses
system.cpu2.dcache.WriteReq_mshr_misses::total         2094                       # number of WriteReq MSHR misses
system.cpu2.dcache.avg_blocked_cycles::no_mshrs          nan                       # average number of cycles each access was blocked
system.cpu2.dcache.avg_blocked_cycles::no_targets          nan                       # average number of cycles each access was blocked
system.cpu2.dcache.blocked::no_mshrs                0                       # number of cycles access was blocked
system.cpu2.dcache.blocked::no_targets              0                       # number of cycles access was blocked
system.cpu2.dcache.blocked_cycles::no_mshrs            0                       # number of cycles access was blocked
system.cpu2.dcache.blocked_cycles::no_targets            0                       # number of cycles access was blocked
system.cpu2.dcache.demand_accesses::.cpu2.data     74045456                       # number of demand (read+write) accesses
system.cpu2.dcache.demand_accesses::total     74045456                       # number of demand (read+write) accesses
system.cpu2.dcache.demand_avg_miss_latency::.cpu2.data 134057.357087                       # average overall miss latency
system.cpu2.dcache.demand_avg_miss_latency::total 134057.357087                       # average overall miss latency
system.cpu2.dcache.demand_avg_mshr_miss_latency::.cpu2.data 132057.357087                       # average overall mshr miss latency
system.cpu2.dcache.demand_avg_mshr_miss_latency::total 132057.357087                       # average overall mshr miss latency
system.cpu2.dcache.demand_hits::.cpu2.data     63545655                       # number of demand (read+write) hits
system.cpu2.dcache.demand_hits::total        63545655                       # number of demand (read+write) hits
system.cpu2.dcache.demand_miss_latency::.cpu2.data 1407575572000                       # number of demand (read+write) miss cycles
system.cpu2.dcache.demand_miss_latency::total 1407575572000                       # number of demand (read+write) miss cycles
system.cpu2.dcache.demand_miss_rate::.cpu2.data     0.141802                       # miss rate for demand accesses
system.cpu2.dcache.demand_miss_rate::total     0.141802                       # miss rate for demand accesses
system.cpu2.dcache.demand_misses::.cpu2.data     10499801                       # number of demand (read+write) misses
system.cpu2.dcache.demand_misses::total      10499801                       # number of demand (read+write) misses
system.cpu2.dcache.demand_mshr_miss_latency::.cpu2.data 1386575970000                       # number of demand (read+write) MSHR miss cycles
system.cpu2.dcache.demand_mshr_miss_latency::total 1386575970000                       # number of demand (read+write) MSHR miss cycles
system.cpu2.dcache.demand_mshr_miss_rate::.cpu2.data     0.141802                       # mshr miss rate for demand accesses
system.cpu2.dcache.demand_mshr_miss_rate::total     0.141802                       # mshr miss rate for demand accesses
system.cpu2.dcache.demand_mshr_misses::.cpu2.data     10499801                       # number of demand (read+write) MSHR misses
system.cpu2.dcache.demand_mshr_misses::total     10499801                       # number of demand (read+write) MSHR misses
system.cpu2.dcache.overall_accesses::.cpu2.data     74045456                       # number of overall (read+write) accesses
system.cpu2.dcache.overall_accesses::total     74045456                       # number of overall (read+write) accesses
system.cpu2.dcache.overall_avg_miss_latency::.cpu2.data 134057.357087                       # average overall miss latency
system.cpu2.dcache.overall_avg_miss_latency::total 134057.357087                       # average overall miss latency
system.cpu2.dcache.overall_avg_mshr_miss_latency::.cpu2.data 132057.357087                       # average overall mshr miss latency
system.cpu2.dcache.overall_avg_mshr_miss_latency::total 132057.357087                       # average overall mshr miss latency
system.cpu2.dcache.overall_hits::.cpu2.data     63545655                       # number of overall hits
system.cpu2.dcache.overall_hits::total       63545655                       # number of overall hits
system.cpu2.dcache.overall_miss_latency::.cpu2.data 1407575572000                       # number of overall miss cycles
system.cpu2.dcache.overall_miss_latency::total 1407575572000                       # number of overall miss cycles
system.cpu2.dcache.overall_miss_rate::.cpu2.data     0.141802                       # miss rate for overall accesses
system.cpu2.dcache.overall_miss_rate::total     0.141802                       # miss rate for overall accesses
system.cpu2.dcache.overall_misses::.cpu2.data     10499801                       # number of overall misses
system.cpu2.dcache.overall_misses::total     10499801                       # number of overall misses
system.cpu2.dcache.overall_mshr_miss_latency::.cpu2.data 1386575970000                       # number of overall MSHR miss cycles
system.cpu2.dcache.overall_mshr_miss_latency::total 1386575970000                       # number of overall MSHR miss cycles
system.cpu2.dcache.overall_mshr_miss_rate::.cpu2.data     0.141802                       # mshr miss rate for overall accesses
system.cpu2.dcache.overall_mshr_miss_rate::total     0.141802                       # mshr miss rate for overall accesses
system.cpu2.dcache.overall_mshr_misses::.cpu2.data     10499801                       # number of overall MSHR misses
system.cpu2.dcache.overall_mshr_misses::total     10499801                       # number of overall MSHR misses
system.cpu2.dcache.pwrStateResidencyTicks::UNDEFINED 2004775801000                       # Cumulative time (in ticks) in various power states
system.cpu2.dcache.replacements              10498777                       # number of replacements
system.cpu2.dcache.tags.age_task_id_blocks_1024::3         1023                       # Occupied blocks per task id
system.cpu2.dcache.tags.age_task_id_blocks_1024::4            1                       # Occupied blocks per task id
system.cpu2.dcache.tags.avg_refs             7.052082                       # Average number of references to valid blocks.
system.cpu2.dcache.tags.data_accesses       158590713                       # Number of data accesses
system.cpu2.dcache.tags.occ_blocks::.cpu2.data  1023.890848                       # Average occupied blocks per requestor
system.cpu2.dcache.tags.occ_percent::.cpu2.data     0.999893                       # Average percentage of cache occupancy
system.cpu2.dcache.tags.occ_percent::total     0.999893                       # Average percentage of cache occupancy
system.cpu2.dcache.tags.occ_task_id_blocks::1024         1024                       # Occupied blocks per task id
system.cpu2.dcache.tags.occ_task_id_percent::1024            1                       # Percentage of cache occupancy per task id
system.cpu2.dcache.tags.pwrStateResidencyTicks::UNDEFINED 2004775801000                       # Cumulative time (in ticks) in various power states
[...]
system.mem_ctrl.wrPerTurnAround::samples      1793865                       # Writes before turning the bus around for reads
system.mem_ctrl.wrPerTurnAround::mean       17.546552                       # Writes before turning the bus around for reads
system.mem_ctrl.wrPerTurnAround::gmean      17.449481                       # Writes before turning the bus around for reads
system.mem_ctrl.wrPerTurnAround::stdev       1.877554                       # Writes before turning the bus around for reads
system.mem_ctrl.wrPerTurnAround::16            996031     55.52%     55.52% # Writes before turning the bus around for reads
system.mem_ctrl.wrPerTurnAround::17             89089      4.97%     60.49% # Writes before turning the bus around for reads
system.mem_ctrl.wrPerTurnAround::18             64639      3.60%     64.09% # Writes before turning the bus around for reads
system.mem_ctrl.wrPerTurnAround::19             55407      3.09%     67.18% # Writes before turning the bus around for reads
system.mem_ctrl.wrPerTurnAround::20            566238     31.57%     98.75% # Writes before turning the bus around for reads
system.mem_ctrl.wrPerTurnAround::21             14735      0.82%     99.57% # Writes before turning the bus around for reads
system.mem_ctrl.wrPerTurnAround::22              3073      0.17%     99.74% # Writes before turning the bus around for reads
system.mem_ctrl.wrPerTurnAround::23              4576      0.26%    100.00% # Writes before turning the bus around for reads
system.mem_ctrl.wrPerTurnAround::24                72      0.00%    100.00% # Writes before turning the bus around for reads
system.mem_ctrl.wrPerTurnAround::25                 5      0.00%    100.00% # Writes before turning the bus around for reads
system.mem_ctrl.wrPerTurnAround::total        1793865                       # Writes before turning the bus around for reads
system.mem_ctrl.wrQLenPdf::0                        1                       # What write queue length does an incoming req see
system.mem_ctrl.wrQLenPdf::1                        1                       # What write queue length does an incoming req see
system.mem_ctrl.wrQLenPdf::2                        1                       # What write queue length does an incoming req see
system.mem_ctrl.wrQLenPdf::3                        1                       # What write queue length does an incoming req see
system.mem_ctrl.wrQLenPdf::4                        1                       # What write queue length does an incoming req see
system.mem_ctrl.wrQLenPdf::5                        1                       # What write queue length does an incoming req see
system.mem_ctrl.wrQLenPdf::6                        1                       # What write queue length does an incoming req see
system.mem_ctrl.wrQLenPdf::7                        1                       # What write queue length does an incoming req see
system.mem_ctrl.wrQLenPdf::8                        1                       # What write queue length does an incoming req see
system.mem_ctrl.wrQLenPdf::9                        1                       # What write queue length does an incoming req see
system.mem_ctrl.wrQLenPdf::10                       1                       # What write queue length does an incoming req see
system.mem_ctrl.wrQLenPdf::11                       1                       # What write queue length does an incoming req see
system.mem_ctrl.wrQLenPdf::12                       1                       # What write queue length does an incoming req see
system.mem_ctrl.wrQLenPdf::13                       1                       # What write queue length does an incoming req see
system.mem_ctrl.wrQLenPdf::14                       1                       # What write queue length does an incoming req see
system.mem_ctrl.wrQLenPdf::15                  640381                       # What write queue length does an incoming req see
system.mem_ctrl.wrQLenPdf::16                  713540                       # What write queue length does an incoming req see
system.mem_ctrl.wrQLenPdf::17                 1692101                       # What write queue length does an incoming req see
system.mem_ctrl.wrQLenPdf::18                 1890253                       # What write queue length does an incoming req see
system.mem_ctrl.wrQLenPdf::19                 1882093                       # What write queue length does an incoming req see
system.mem_ctrl.wrQLenPdf::20                 2083360                       # What write queue length does an incoming req see
system.mem_ctrl.wrQLenPdf::21                 2074754                       # What write queue length does an incoming req see
system.mem_ctrl.wrQLenPdf::22                 1861901                       # What write queue length does an incoming req see
system.mem_ctrl.wrQLenPdf::23                 1856914                       # What write queue length does an incoming req see
system.mem_ctrl.wrQLenPdf::24                 1878671                       # What write queue length does an incoming req see
system.mem_ctrl.wrQLenPdf::25                 1832514                       # What write queue length does an incoming req see
system.mem_ctrl.wrQLenPdf::26                 1930009                       # What write queue length does an incoming req see
system.mem_ctrl.wrQLenPdf::27                 1807932                       # What write queue length does an incoming req see
system.mem_ctrl.wrQLenPdf::28                 1850466                       # What write queue length does an incoming req see
system.mem_ctrl.wrQLenPdf::29                 2024123                       # What write queue length does an incoming req see
system.mem_ctrl.wrQLenPdf::30                 1799808                       # What write queue length does an incoming req see
system.mem_ctrl.wrQLenPdf::31                 1843217                       # What write queue length does an incoming req see
system.mem_ctrl.wrQLenPdf::32                 1796327                       # What write queue length does an incoming req see
system.mem_ctrl.wrQLenPdf::33                   11159                       # What write queue length does an incoming req see
system.mem_ctrl.wrQLenPdf::34                    6480                       # What write queue length does an incoming req see
system.mem_ctrl.wrQLenPdf::35                     146                       # What write queue length does an incoming req see
system.mem_ctrl.wrQLenPdf::36                       0                       # What write queue length does an incoming req see
system.mem_ctrl.wrQLenPdf::37                       0                       # What write queue length does an incoming req see
system.mem_ctrl.wrQLenPdf::38                       0                       # What write queue length does an incoming req see
system.mem_ctrl.wrQLenPdf::39                       0                       # What write queue length does an incoming req see
system.mem_ctrl.wrQLenPdf::40                       0                       # What write queue length does an incoming req see
system.mem_ctrl.wrQLenPdf::41                       0                       # What write queue length does an incoming req see
system.mem_ctrl.wrQLenPdf::42                       0                       # What write queue length does an incoming req see
system.mem_ctrl.wrQLenPdf::43                       0                       # What write queue length does an incoming req see
system.mem_ctrl.wrQLenPdf::44                       0                       # What write queue length does an incoming req see
system.mem_ctrl.wrQLenPdf::45                       0                       # What write queue length does an incoming req see
system.mem_ctrl.wrQLenPdf::46                       0                       # What write queue length does an incoming req see
system.mem_ctrl.wrQLenPdf::47                       0                       # What write queue length does an incoming req see
system.mem_ctrl.wrQLenPdf::48                       0                       # What write queue length does an incoming req see
system.mem_ctrl.wrQLenPdf::49                       0                       # What write queue length does an incoming req see
system.mem_ctrl.wrQLenPdf::50                       0                       # What write queue length does an incoming req see
system.mem_ctrl.wrQLenPdf::51                       0                       # What write queue length does an incoming req see
system.mem_ctrl.wrQLenPdf::52                       0                       # What write queue length does an incoming req see
system.mem_ctrl.wrQLenPdf::53                       0                       # What write queue length does an incoming req see
system.mem_ctrl.wrQLenPdf::54                       0                       # What write queue length does an incoming req see
system.mem_ctrl.wrQLenPdf::55                       0                       # What write queue length does an incoming req see
system.mem_ctrl.wrQLenPdf::56                       0                       # What write queue length does an incoming req see
system.mem_ctrl.wrQLenPdf::57                       0                       # What write queue length does an incoming req see
system.mem_ctrl.wrQLenPdf::58                       0                       # What write queue length does an incoming req see
system.mem_ctrl.wrQLenPdf::59                       0                       # What write queue length does an incoming req see
system.mem_ctrl.wrQLenPdf::60                       0                       # What write queue length does an incoming req see
system.mem_ctrl.wrQLenPdf::61                       0                       # What write queue length does an incoming req see
system.mem_ctrl.wrQLenPdf::62                       0                       # What write queue length does an incoming req see
system.mem_ctrl.wrQLenPdf::63                       0                       # What write queue length does an incoming req see
system.mem_ctrl.writeBursts                  31476164                       # Number of DRAM write bursts, including those merged in the write queue
system.mem_ctrl.writePktSize::0                     0                       # Write request sizes (log2)
system.mem_ctrl.writePktSize::1                     0                       # Write request sizes (log2)
system.mem_ctrl.writePktSize::2                     0                       # Write request sizes (log2)
system.mem_ctrl.writePktSize::3                     0                       # Write request sizes (log2)
system.mem_ctrl.writePktSize::4                     0                       # Write request sizes (log2)
system.mem_ctrl.writePktSize::5                     0                       # Write request sizes (log2)
system.mem_ctrl.writePktSize::6              31476164                       # Write request sizes (log2)
system.mem_ctrl.writeReqs                    31476164                       # Number of write requests accepted
system.mem_ctrl.writeRowHitRate                 89.64                       # Row buffer hit rate for writes
system.mem_ctrl.writeRowHits                 28215045                       # Number of row buffer hits during writes
system.mem_ctrl_0.actBackEnergy          714291267750                       # Energy for active background per rank (pJ)
system.mem_ctrl_0.actEnergy               90513215940                       # Energy for activate commands per rank (pJ)
system.mem_ctrl_0.actPowerDownEnergy                0                       # Energy for active power-down per rank (pJ)
system.mem_ctrl_0.averagePower             685.460654                       # Core power per rank (mW)
system.mem_ctrl_0.memoryStateTime::IDLE  387499502805                       # Time in different power states
system.mem_ctrl_0.memoryStateTime::REF    66943760000                       # Time in different power states
system.mem_ctrl_0.memoryStateTime::SREF             0                       # Time in different power states
system.mem_ctrl_0.memoryStateTime::PRE_PDN            0                       # Time in different power states
system.mem_ctrl_0.memoryStateTime::ACT   1550332538195                       # Time in different power states
system.mem_ctrl_0.memoryStateTime::ACT_PDN            0                       # Time in different power states
system.mem_ctrl_0.preBackEnergy          168325471680                       # Energy for precharge background per rank (pJ)
system.mem_ctrl_0.preEnergy               48108915195                       # Energy for precharge commands per rank (pJ)
system.mem_ctrl_0.prePowerDownEnergy                0                       # Energy for precharge power-down per rank (pJ)
system.mem_ctrl_0.readEnergy             112556230920                       # Energy for read commands per rank (pJ)
system.mem_ctrl_0.refreshEnergy          158255048640.000031                       # Energy for refresh commands per rank (pJ)
system.mem_ctrl_0.selfRefreshEnergy                 0                       # Energy for self refresh per rank (pJ)
system.mem_ctrl_0.totalEnergy            1374194930685                       # Total energy per rank (pJ)
system.mem_ctrl_0.totalIdleTime                     0                       # Total Idle time Per DRAM Rank
system.mem_ctrl_0.writeEnergy             82144780560                       # Energy for write commands per rank (pJ)
system.mem_ctrl_1.actBackEnergy          714720408780                       # Energy for active background per rank (pJ)
system.mem_ctrl_1.actEnergy               90538498680                       # Energy for activate commands per rank (pJ)
system.mem_ctrl_1.actPowerDownEnergy                0                       # Energy for active power-down per rank (pJ)
system.mem_ctrl_1.averagePower             685.535948                       # Core power per rank (mW)
system.mem_ctrl_1.memoryStateTime::IDLE  386669994262                       # Time in different power states
system.mem_ctrl_1.memoryStateTime::REF    66943760000                       # Time in different power states
system.mem_ctrl_1.memoryStateTime::SREF             0                       # Time in different power states
system.mem_ctrl_1.memoryStateTime::PRE_PDN            0                       # Time in different power states
system.mem_ctrl_1.memoryStateTime::ACT   1551162046738                       # Time in different power states
system.mem_ctrl_1.memoryStateTime::ACT_PDN            0                       # Time in different power states
system.mem_ctrl_1.preBackEnergy          167964089760                       # Energy for precharge background per rank (pJ)
system.mem_ctrl_1.preEnergy               48122334315                       # Energy for precharge commands per rank (pJ)
system.mem_ctrl_1.prePowerDownEnergy                0                       # Energy for precharge power-down per rank (pJ)
system.mem_ctrl_1.readEnergy             112584798060                       # Energy for read commands per rank (pJ)
system.mem_ctrl_1.refreshEnergy          158255048640.000031                       # Energy for refresh commands per rank (pJ)
system.mem_ctrl_1.selfRefreshEnergy                 0                       # Energy for self refresh per rank (pJ)
system.mem_ctrl_1.totalEnergy            1374345879795                       # Total energy per rank (pJ)
system.mem_ctrl_1.totalIdleTime                     0                       # Total Idle time Per DRAM Rank
system.mem_ctrl_1.writeEnergy             82160701560                       # Energy for write commands per rank (pJ)
system.membus.pkt_count_system.l2cache.mem_side::system.mem_ctrl.port     94589392                       # Packet count per connected master and slave (bytes)
system.membus.pkt_count_system.l2cache.mem_side::total     94589392                       # Packet count per connected master and slave (bytes)
system.membus.pkt_count::total               94589392                       # Packet count per connected master and slave (bytes)
system.membus.pkt_size_system.l2cache.mem_side::system.mem_ctrl.port   4032553856                       # Cumulative packet size per connected master and slave (bytes)
system.membus.pkt_size_system.l2cache.mem_side::total   4032553856                       # Cumulative packet size per connected master and slave (bytes)
system.membus.pkt_size::total              4032553856                       # Cumulative packet size per connected master and slave (bytes)
system.membus.pwrStateResidencyTicks::UNDEFINED 2004775801000                       # Cumulative time (in ticks) in various power states
system.membus.reqLayer8.occupancy        216208930353                       # Layer occupancy (ticks)
system.membus.reqLayer8.utilization              10.8                       # Layer utilization (%)
system.membus.respLayer0.occupancy       169820092823                       # Layer occupancy (ticks)
system.membus.respLayer0.utilization              8.5                       # Layer utilization (%)
system.membus.snoopTraffic                          0                       # Total snoop traffic (bytes)
system.membus.snoop_fanout::samples          31532490                       # Request fanout histogram
system.membus.snoop_fanout::mean                    0                       # Request fanout histogram
system.membus.snoop_fanout::stdev                   0                       # Request fanout histogram
system.membus.snoop_fanout::underflows              0      0.00%      0.00% # Request fanout histogram
system.membus.snoop_fanout::0                31532490    100.00%    100.00% # Request fanout histogram
system.membus.snoop_fanout::1                       0      0.00%    100.00% # Request fanout histogram
system.membus.snoop_fanout::overflows               0      0.00%    100.00% # Request fanout histogram
system.membus.snoop_fanout::min_value               0                       # Request fanout histogram
system.membus.snoop_fanout::max_value               0                       # Request fanout histogram
system.membus.snoop_fanout::total            31532490                       # Request fanout histogram
system.membus.snoop_filter.hit_multi_requests            0                       # Number of requests hitting in the snoop filter with multiple (>1) holders of the requested data.
system.membus.snoop_filter.hit_multi_snoops            0                       # Number of snoops hitting in the snoop filter with multiple (>1) holders of the requested data.
system.membus.snoop_filter.hit_single_requests     31524412                       # Number of requests hitting in the snoop filter with a single holder of the requested data.
system.membus.snoop_filter.hit_single_snoops            0                       # Number of snoops hitting in the snoop filter with a single holder of the requested data.
system.membus.snoop_filter.tot_requests      63056902                       # Total number of requests made to the snoop filter.
system.membus.snoop_filter.tot_snoops               0                       # Total number of snoops made to the snoop filter.
system.membus.snoops                                0                       # Total snoops (count)
system.membus.trans_dist::ReadResp           31509648                       # Transaction distribution
system.membus.trans_dist::WritebackDirty     31476164                       # Transaction distribution
system.membus.trans_dist::CleanEvict            48248                       # Transaction distribution
system.membus.trans_dist::ReadExReq             22842                       # Transaction distribution
system.membus.trans_dist::ReadExResp            22842                       # Transaction distribution
system.membus.trans_dist::ReadSharedReq      31509648                       # Transaction distribution

---------- End Simulation Statistics   ----------
