
---------- Begin Simulation Statistics ----------
final_tick                                10149636000                       # Number of ticks from beginning of simulation (restored from checkpoints and never reset)
host_inst_rate                                  69465                       # Simulator instruction rate (inst/s)
host_mem_usage                                 824204                       # Number of bytes of host memory used
host_op_rate                                   117145                       # Simulator op (including micro ops) rate (op/s)
host_seconds                                   462.88                       # Real time elapsed on the host
host_tick_rate                               21927046                       # Simulator tick rate (ticks/s)
sim_freq                                 1000000000000                       # Frequency of simulated ticks
sim_insts                                    32154020                       # Number of instructions simulated
sim_ops                                      54224124                       # Number of ops (including micro ops) simulated
sim_seconds                                  0.010150                       # Number of seconds simulated
sim_ticks                                 10149636000                       # Number of ticks simulated
system.clk_domain.clock                          1000                       # Clock period in ticks
system.clk_domain.voltage_domain.voltage            1                       # Voltage in Volts
system.cpu0.branchPred.BTBCorrect                   0                       # Number of correct BTB predictions (this stat may not work properly.
system.cpu0.branchPred.BTBHitPct             0.000000                       # BTB Hit Percentage
system.cpu0.branchPred.BTBHits                      0                       # Number of BTB hits
system.cpu0.branchPred.BTBLookups             2044487                       # Number of BTB lookups
system.cpu0.branchPred.RASInCorrect                 1                       # Number of incorrect RAS predictions.
system.cpu0.branchPred.condIncorrect            55440                       # Number of conditional branches incorrect
system.cpu0.branchPred.condPredicted          2099170                       # Number of conditional branches predicted
system.cpu0.branchPred.indirectHits            836653                       # Number of indirect target hits.
system.cpu0.branchPred.indirectLookups        2044487                       # Number of indirect predictor lookups.
system.cpu0.branchPred.indirectMisses         1207834                       # Number of indirect misses.
system.cpu0.branchPred.lookups                2326127                       # Number of BP lookups
system.cpu0.branchPred.usedRAS                 105914                       # Number of times the RAS was used to get a target.
system.cpu0.branchPredindirectMispredicted        52309                       # Number of mispredicted indirect branches.
system.cpu0.cc_regfile_reads                 10783932                       # number of cc regfile reads
system.cpu0.cc_regfile_writes                 6108608                       # number of cc regfile writes
system.cpu0.commit.amos                             0                       # Number of atomic instructions committed
system.cpu0.commit.branchMispredicts            55531                       # The number of times a branch was mispredicted
system.cpu0.commit.branches                   1992938                       # Number of branches committed
system.cpu0.commit.bw_lim_events              1005690                       # number cycles where commit BW limit reached
system.cpu0.commit.commitNonSpecStalls             62                       # The number of times commit has been forced to stall to communicate backwards
system.cpu0.commit.commitSquashedInsts        1363604                       # The number of squashed insts skipped by commit
system.cpu0.commit.committedInsts            10000000                       # Number of instructions committed
system.cpu0.commit.committedOps              17943323                       # Number of ops (including micro ops) committed
system.cpu0.commit.committed_per_cycle::samples      9785129                       # Number of insts commited each cycle
system.cpu0.commit.committed_per_cycle::mean     1.833734                       # Number of insts commited each cycle
system.cpu0.commit.committed_per_cycle::stdev     2.648010                       # Number of insts commited each cycle
system.cpu0.commit.committed_per_cycle::underflows            0      0.00%      0.00% # Number of insts commited each cycle
system.cpu0.commit.committed_per_cycle::0      5264556     53.80%     53.80% # Number of insts commited each cycle
system.cpu0.commit.committed_per_cycle::1       916050      9.36%     63.16% # Number of insts commited each cycle
system.cpu0.commit.committed_per_cycle::2       680275      6.95%     70.12% # Number of insts commited each cycle
system.cpu0.commit.committed_per_cycle::3      1005671     10.28%     80.39% # Number of insts commited each cycle
system.cpu0.commit.committed_per_cycle::4       419748      4.29%     84.68% # Number of insts commited each cycle
system.cpu0.commit.committed_per_cycle::5       216071      2.21%     86.89% # Number of insts commited each cycle
system.cpu0.commit.committed_per_cycle::6        94633      0.97%     87.86% # Number of insts commited each cycle
system.cpu0.commit.committed_per_cycle::7       182435      1.86%     89.72% # Number of insts commited each cycle
system.cpu0.commit.committed_per_cycle::8      1005690     10.28%    100.00% # Number of insts commited each cycle
system.cpu0.commit.committed_per_cycle::overflows            0      0.00%    100.00% # Number of insts commited each cycle
system.cpu0.commit.committed_per_cycle::min_value            0                       # Number of insts commited each cycle
system.cpu0.commit.committed_per_cycle::max_value            8                       # Number of insts commited each cycle
system.cpu0.commit.committed_per_cycle::total      9785129                       # Number of insts commited each cycle
system.cpu0.commit.fp_insts                    255296                       # Number of committed floating point instructions.
system.cpu0.commit.function_calls               96378                       # Number of function calls committed.
system.cpu0.commit.int_insts                 17781229                       # Number of committed integer instructions.
system.cpu0.commit.loads                      2386244                       # Number of loads committed
system.cpu0.commit.membars                         24                       # Number of memory barriers committed
system.cpu0.commit.op_class_0::No_OpClass        34034      0.19%      0.19% # Class of committed instruction
system.cpu0.commit.op_class_0::IntAlu        13819368     77.02%     77.21% # Class of committed instruction
system.cpu0.commit.op_class_0::IntMult          37045      0.21%     77.41% # Class of committed instruction
system.cpu0.commit.op_class_0::IntDiv              21      0.00%     77.41% # Class of committed instruction
system.cpu0.commit.op_class_0::FloatAdd         22633      0.13%     77.54% # Class of committed instruction
system.cpu0.commit.op_class_0::FloatCmp             0      0.00%     77.54% # Class of committed instruction
system.cpu0.commit.op_class_0::FloatCvt             0      0.00%     77.54% # Class of committed instruction
system.cpu0.commit.op_class_0::FloatMult            0      0.00%     77.54% # Class of committed instruction
system.cpu0.commit.op_class_0::FloatMultAcc            0      0.00%     77.54% # Class of committed instruction
system.cpu0.commit.op_class_0::FloatDiv             0      0.00%     77.54% # Class of committed instruction
system.cpu0.commit.op_class_0::FloatMisc            0      0.00%     77.54% # Class of committed instruction
system.cpu0.commit.op_class_0::FloatSqrt            0      0.00%     77.54% # Class of committed instruction
system.cpu0.commit.op_class_0::SimdAdd            374      0.00%     77.54% # Class of committed instruction
system.cpu0.commit.op_class_0::SimdAddAcc            0      0.00%     77.54% # Class of committed instruction
system.cpu0.commit.op_class_0::SimdAlu            100      0.00%     77.54% # Class of committed instruction
system.cpu0.commit.op_class_0::SimdCmp              0      0.00%     77.54% # Class of committed instruction
system.cpu0.commit.op_class_0::SimdCvt          24170      0.13%     77.68% # Class of committed instruction
system.cpu0.commit.op_class_0::SimdMisc        103481      0.58%     78.25% # Class of committed instruction
system.cpu0.commit.op_class_0::SimdMult             0      0.00%     78.25% # Class of committed instruction
system.cpu0.commit.op_class_0::SimdMultAcc            0      0.00%     78.25% # Class of committed instruction
system.cpu0.commit.op_class_0::SimdShift          186      0.00%     78.25% # Class of committed instruction
system.cpu0.commit.op_class_0::SimdShiftAcc            0      0.00%     78.25% # Class of committed instruction
system.cpu0.commit.op_class_0::SimdDiv              0      0.00%     78.25% # Class of committed instruction
system.cpu0.commit.op_class_0::SimdSqrt             0      0.00%     78.25% # Class of committed instruction
system.cpu0.commit.op_class_0::SimdFloatAdd            0      0.00%     78.25% # Class of committed instruction
system.cpu0.commit.op_class_0::SimdFloatAlu            0      0.00%     78.25% # Class of committed instruction
system.cpu0.commit.op_class_0::SimdFloatCmp            0      0.00%     78.25% # Class of committed instruction
system.cpu0.commit.op_class_0::SimdFloatCvt            0      0.00%     78.25% # Class of committed instruction
system.cpu0.commit.op_class_0::SimdFloatDiv            0      0.00%     78.25% # Class of committed instruction
system.cpu0.commit.op_class_0::SimdFloatMisc            0      0.00%     78.25% # Class of committed instruction
system.cpu0.commit.op_class_0::SimdFloatMult            0      0.00%     78.25% # Class of committed instruction
system.cpu0.commit.op_class_0::SimdFloatMultAcc            0      0.00%     78.25% # Class of committed instruction
system.cpu0.commit.op_class_0::SimdFloatSqrt            0      0.00%     78.25% # Class of committed instruction
system.cpu0.commit.op_class_0::SimdReduceAdd            0      0.00%     78.25% # Class of committed instruction
system.cpu0.commit.op_class_0::SimdReduceAlu            0      0.00%     78.25% # Class of committed instruction
system.cpu0.commit.op_class_0::SimdReduceCmp            0      0.00%     78.25% # Class of committed instruction
system.cpu0.commit.op_class_0::SimdFloatReduceAdd            0      0.00%     78.25% # Class of committed instruction
system.cpu0.commit.op_class_0::SimdFloatReduceCmp            0      0.00%     78.25% # Class of committed instruction
system.cpu0.commit.op_class_0::SimdAes              0      0.00%     78.25% # Class of committed instruction
system.cpu0.commit.op_class_0::SimdAesMix            0      0.00%     78.25% # Class of committed instruction
system.cpu0.commit.op_class_0::SimdSha1Hash            0      0.00%     78.25% # Class of committed instruction
system.cpu0.commit.op_class_0::SimdSha1Hash2            0      0.00%     78.25% # Class of committed instruction
system.cpu0.commit.op_class_0::SimdSha256Hash            0      0.00%     78.25% # Class of committed instruction
system.cpu0.commit.op_class_0::SimdSha256Hash2            0      0.00%     78.25% # Class of committed instruction
system.cpu0.commit.op_class_0::SimdShaSigma2            0      0.00%     78.25% # Class of committed instruction
system.cpu0.commit.op_class_0::SimdShaSigma3            0      0.00%     78.25% # Class of committed instruction
system.cpu0.commit.op_class_0::SimdPredAlu            0      0.00%     78.25% # Class of committed instruction
system.cpu0.commit.op_class_0::MemRead        2328174     12.98%     91.23% # Class of committed instruction
system.cpu0.commit.op_class_0::MemWrite       1481212      8.25%     99.48% # Class of committed instruction
system.cpu0.commit.op_class_0::FloatMemRead        58070      0.32%     99.81% # Class of committed instruction
system.cpu0.commit.op_class_0::FloatMemWrite        34455      0.19%    100.00% # Class of committed instruction
system.cpu0.commit.op_class_0::IprAccess            0      0.00%    100.00% # Class of committed instruction
system.cpu0.commit.op_class_0::InstPrefetch            0      0.00%    100.00% # Class of committed instruction
system.cpu0.commit.op_class_0::total         17943323                       # Class of committed instruction
system.cpu0.commit.refs                       3901911                       # Number of memory references committed
system.cpu0.commit.swp_count                        0                       # Number of s/w prefetches committed
system.cpu0.commit.vec_insts                        0                       # Number of committed Vector instructions.
system.cpu0.committedInsts                   10000000                       # Number of Instructions Simulated
system.cpu0.committedOps                     17943323                       # Number of Ops (including micro ops) Simulated
system.cpu0.cpi                              1.014964                       # CPI: Cycles Per Instruction
system.cpu0.cpi_total                        1.014964                       # CPI: Total CPI of All Threads
system.cpu0.dcache.ReadReq_accesses::.cpu0.data      1895400                       # number of ReadReq accesses(hits+misses)
system.cpu0.dcache.ReadReq_accesses::total      1895400                       # number of ReadReq accesses(hits+misses)
system.cpu0.dcache.ReadReq_avg_miss_latency::.cpu0.data 155818.081138                       # average ReadReq miss latency
system.cpu0.dcache.ReadReq_avg_miss_latency::total 155818.081138                       # average ReadReq miss latency
system.cpu0.dcache.ReadReq_avg_mshr_miss_latency::.cpu0.data 159326.047359                       # average ReadReq mshr miss latency
system.cpu0.dcache.ReadReq_avg_mshr_miss_latency::total 159326.047359                       # average ReadReq mshr miss latency
system.cpu0.dcache.ReadReq_hits::.cpu0.data      1878244                       # number of ReadReq hits
system.cpu0.dcache.ReadReq_hits::total        1878244                       # number of ReadReq hits
system.cpu0.dcache.ReadReq_miss_latency::.cpu0.data   2673215000                       # number of ReadReq miss cycles
system.cpu0.dcache.ReadReq_miss_latency::total   2673215000                       # number of ReadReq miss cycles
system.cpu0.dcache.ReadReq_miss_rate::.cpu0.data     0.009051                       # miss rate for ReadReq accesses
system.cpu0.dcache.ReadReq_miss_rate::total     0.009051                       # miss rate for ReadReq accesses
system.cpu0.dcache.ReadReq_misses::.cpu0.data        17156                       # number of ReadReq misses
system.cpu0.dcache.ReadReq_misses::total        17156                       # number of ReadReq misses
system.cpu0.dcache.ReadReq_mshr_hits::.cpu0.data         6725                       # number of ReadReq MSHR hits
system.cpu0.dcache.ReadReq_mshr_hits::total         6725                       # number of ReadReq MSHR hits
system.cpu0.dcache.ReadReq_mshr_miss_latency::.cpu0.data   1661930000                       # number of ReadReq MSHR miss cycles
system.cpu0.dcache.ReadReq_mshr_miss_latency::total   1661930000                       # number of ReadReq MSHR miss cycles
system.cpu0.dcache.ReadReq_mshr_miss_rate::.cpu0.data     0.005503                       # mshr miss rate for ReadReq accesses
system.cpu0.dcache.ReadReq_mshr_miss_rate::total     0.005503                       # mshr miss rate for ReadReq accesses
system.cpu0.dcache.ReadReq_mshr_misses::.cpu0.data        10431                       # number of ReadReq MSHR misses
system.cpu0.dcache.ReadReq_mshr_misses::total        10431                       # number of ReadReq MSHR misses
system.cpu0.dcache.WriteReq_accesses::.cpu0.data      1515646                       # number of WriteReq accesses(hits+misses)
system.cpu0.dcache.WriteReq_accesses::total      1515646                       # number of WriteReq accesses(hits+misses)
system.cpu0.dcache.WriteReq_avg_miss_latency::.cpu0.data 148369.576280                       # average WriteReq miss latency
system.cpu0.dcache.WriteReq_avg_miss_latency::total 148369.576280                       # average WriteReq miss latency
system.cpu0.dcache.WriteReq_avg_mshr_miss_latency::.cpu0.data 159962.834622                       # average WriteReq mshr miss latency
system.cpu0.dcache.WriteReq_avg_mshr_miss_latency::total 159962.834622                       # average WriteReq mshr miss latency
system.cpu0.dcache.WriteReq_hits::.cpu0.data      1486169                       # number of WriteReq hits
system.cpu0.dcache.WriteReq_hits::total       1486169                       # number of WriteReq hits
system.cpu0.dcache.WriteReq_miss_latency::.cpu0.data   4373490000                       # number of WriteReq miss cycles
system.cpu0.dcache.WriteReq_miss_latency::total   4373490000                       # number of WriteReq miss cycles
system.cpu0.dcache.WriteReq_miss_rate::.cpu0.data     0.019448                       # miss rate for WriteReq accesses
system.cpu0.dcache.WriteReq_miss_rate::total     0.019448                       # miss rate for WriteReq accesses
system.cpu0.dcache.WriteReq_misses::.cpu0.data        29477                       # number of WriteReq misses
system.cpu0.dcache.WriteReq_misses::total        29477                       # number of WriteReq misses
system.cpu0.dcache.WriteReq_mshr_hits::.cpu0.data         3216                       # number of WriteReq MSHR hits
system.cpu0.dcache.WriteReq_mshr_hits::total         3216                       # number of WriteReq MSHR hits
system.cpu0.dcache.WriteReq_mshr_miss_latency::.cpu0.data   4200784000                       # number of WriteReq MSHR miss cycles
system.cpu0.dcache.WriteReq_mshr_miss_latency::total   4200784000                       # number of WriteReq MSHR miss cycles
system.cpu0.dcache.WriteReq_mshr_miss_rate::.cpu0.data     0.017327                       # mshr miss rate for WriteReq accesses
system.cpu0.dcache.WriteReq_mshr_miss_rate::total     0.017327                       # mshr miss rate for WriteReq accesses
system.cpu0.dcache.WriteReq_mshr_misses::.cpu0.data        26261                       # number of WriteReq MSHR misses
system.cpu0.dcache.WriteReq_mshr_misses::total        26261                       # number of WriteReq MSHR misses
system.cpu0.dcache.avg_blocked_cycles::no_mshrs    48.538462                       # average number of cycles each access was blocked
system.cpu0.dcache.avg_blocked_cycles::no_targets          nan                       # average number of cycles each access was blocked
system.cpu0.dcache.blocked::no_mshrs               52                       # number of cycles access was blocked
system.cpu0.dcache.blocked::no_targets              0                       # number of cycles access was blocked
system.cpu0.dcache.blocked_cycles::no_mshrs         2524                       # number of cycles access was blocked
system.cpu0.dcache.blocked_cycles::no_targets            0                       # number of cycles access was blocked
system.cpu0.dcache.demand_accesses::.cpu0.data      3411046                       # number of demand (read+write) accesses
system.cpu0.dcache.demand_accesses::total      3411046                       # number of demand (read+write) accesses
system.cpu0.dcache.demand_avg_miss_latency::.cpu0.data 151109.836382                       # average overall miss latency
system.cpu0.dcache.demand_avg_miss_latency::total 151109.836382                       # average overall miss latency
system.cpu0.dcache.demand_avg_mshr_miss_latency::.cpu0.data 159781.805298                       # average overall mshr miss latency
system.cpu0.dcache.demand_avg_mshr_miss_latency::total 159781.805298                       # average overall mshr miss latency
system.cpu0.dcache.demand_hits::.cpu0.data      3364413                       # number of demand (read+write) hits
system.cpu0.dcache.demand_hits::total         3364413                       # number of demand (read+write) hits
system.cpu0.dcache.demand_miss_latency::.cpu0.data   7046705000                       # number of demand (read+write) miss cycles
system.cpu0.dcache.demand_miss_latency::total   7046705000                       # number of demand (read+write) miss cycles
system.cpu0.dcache.demand_miss_rate::.cpu0.data     0.013671                       # miss rate for demand accesses
system.cpu0.dcache.demand_miss_rate::total     0.013671                       # miss rate for demand accesses
system.cpu0.dcache.demand_misses::.cpu0.data        46633                       # number of demand (read+write) misses
system.cpu0.dcache.demand_misses::total         46633                       # number of demand (read+write) misses
system.cpu0.dcache.demand_mshr_hits::.cpu0.data         9941                       # number of demand (read+write) MSHR hits
system.cpu0.dcache.demand_mshr_hits::total         9941                       # number of demand (read+write) MSHR hits
system.cpu0.dcache.demand_mshr_miss_latency::.cpu0.data   5862714000                       # number of demand (read+write) MSHR miss cycles
system.cpu0.dcache.demand_mshr_miss_latency::total   5862714000                       # number of demand (read+write) MSHR miss cycles
system.cpu0.dcache.demand_mshr_miss_rate::.cpu0.data     0.010757                       # mshr miss rate for demand accesses
system.cpu0.dcache.demand_mshr_miss_rate::total     0.010757                       # mshr miss rate for demand accesses
system.cpu0.dcache.demand_mshr_misses::.cpu0.data        36692                       # number of demand (read+write) MSHR misses
system.cpu0.dcache.demand_mshr_misses::total        36692                       # number of demand (read+write) MSHR misses
system.cpu0.dcache.overall_accesses::.cpu0.data      3411046                       # number of overall (read+write) accesses
system.cpu0.dcache.overall_accesses::total      3411046                       # number of overall (read+write) accesses
system.cpu0.dcache.overall_avg_miss_latency::.cpu0.data 151109.836382                       # average overall miss latency
system.cpu0.dcache.overall_avg_miss_latency::total 151109.836382                       # average overall miss latency
system.cpu0.dcache.overall_avg_mshr_miss_latency::.cpu0.data 159781.805298                       # average overall mshr miss latency
system.cpu0.dcache.overall_avg_mshr_miss_latency::total 159781.805298                       # average overall mshr miss latency
system.cpu0.dcache.overall_hits::.cpu0.data      3364413                       # number of overall hits
system.cpu0.dcache.overall_hits::total        3364413                       # number of overall hits
system.cpu0.dcache.overall_miss_latency::.cpu0.data   7046705000                       # number of overall miss cycles
system.cpu0.dcache.overall_miss_latency::total   7046705000                       # number of overall miss cycles
system.cpu0.dcache.overall_miss_rate::.cpu0.data     0.013671                       # miss rate for overall accesses
system.cpu0.dcache.overall_miss_rate::total     0.013671                       # miss rate for overall accesses
system.cpu0.dcache.overall_misses::.cpu0.data        46633                       # number of overall misses
system.cpu0.dcache.overall_misses::total        46633                       # number of overall misses
system.cpu0.dcache.overall_mshr_hits::.cpu0.data         9941                       # number of overall MSHR hits
system.cpu0.dcache.overall_mshr_hits::total         9941                       # number of overall MSHR hits
system.cpu0.dcache.overall_mshr_miss_latency::.cpu0.data   5862714000                       # number of overall MSHR miss cycles
system.cpu0.dcache.overall_mshr_miss_latency::total   5862714000                       # number of overall MSHR miss cycles
system.cpu0.dcache.overall_mshr_miss_rate::.cpu0.data     0.010757                       # mshr miss rate for overall accesses
system.cpu0.dcache.overall_mshr_miss_rate::total     0.010757                       # mshr miss rate for overall accesses
system.cpu0.dcache.overall_mshr_misses::.cpu0.data        36692                       # number of overall MSHR misses
system.cpu0.dcache.overall_mshr_misses::total        36692                       # number of overall MSHR misses
system.cpu0.dcache.pwrStateResidencyTicks::UNDEFINED  10149636000                       # Cumulative time (in ticks) in various power states
system.cpu0.dcache.replacements                 35667                       # number of replacements
system.cpu0.dcache.tags.age_task_id_blocks_1024::0           39                       # Occupied blocks per task id
system.cpu0.dcache.tags.age_task_id_blocks_1024::1          306                       # Occupied blocks per task id
system.cpu0.dcache.tags.age_task_id_blocks_1024::2          638                       # Occupied blocks per task id
system.cpu0.dcache.tags.age_task_id_blocks_1024::3           13                       # Occupied blocks per task id
system.cpu0.dcache.tags.age_task_id_blocks_1024::4           28                       # Occupied blocks per task id
system.cpu0.dcache.tags.avg_refs            92.695865                       # Average number of references to valid blocks.
system.cpu0.dcache.tags.data_accesses         6858783                       # Number of data accesses
system.cpu0.dcache.tags.occ_blocks::.cpu0.data  1005.137253                       # Average occupied blocks per requestor
system.cpu0.dcache.tags.occ_percent::.cpu0.data     0.981579                       # Average percentage of cache occupancy
system.cpu0.dcache.tags.occ_percent::total     0.981579                       # Average percentage of cache occupancy
system.cpu0.dcache.tags.occ_task_id_blocks::1024         1024                       # Occupied blocks per task id
system.cpu0.dcache.tags.occ_task_id_percent::1024            1                       # Percentage of cache occupancy per task id
system.cpu0.dcache.tags.pwrStateResidencyTicks::UNDEFINED  10149636000                       # Cumulative time (in ticks) in various power states
system.cpu0.dcache.tags.sampled_refs            36691                       # Sample count of references to valid blocks.
system.cpu0.dcache.tags.tag_accesses          6858783                       # Number of tag accesses
system.cpu0.dcache.tags.tagsinuse         1005.137253                       # Cycle average of tags in use
system.cpu0.dcache.tags.total_refs            3401104                       # Total number of references to valid blocks.
system.cpu0.dcache.tags.warmup_cycle           222000                       # Cycle when the warmup percentage was hit.
system.cpu0.dcache.writebacks::.writebacks        34649                       # number of writebacks
system.cpu0.dcache.writebacks::total            34649                       # number of writebacks
system.cpu0.decode.BlockedCycles              4265353                       # Number of cycles decode is blocked
system.cpu0.decode.DecodedInsts              20067487                       # Number of instructions handled by decode
system.cpu0.decode.IdleCycles                 2611786                       # Number of cycles decode is idle
system.cpu0.decode.RunCycles                  2859111                       # Number of cycles decode is running
system.cpu0.decode.SquashCycles                 55778                       # Number of cycles decode is squashing
system.cpu0.decode.UnblockCycles               195169                       # Number of cycles decode is unblocking
system.cpu0.dtb.rdAccesses                    2490294                       # TLB accesses on read requests
system.cpu0.dtb.rdMisses                          184                       # TLB misses on read requests
system.cpu0.dtb.walker.pwrStateResidencyTicks::UNDEFINED  10149636000                       # Cumulative time (in ticks) in various power states
system.cpu0.dtb.wrAccesses                    1574298                       # TLB accesses on write requests
system.cpu0.dtb.wrMisses                          618                       # TLB misses on write requests
system.cpu0.fetch.Branches                    2326127                       # Number of branches that fetch encountered
system.cpu0.fetch.CacheLines                  1463638                       # Number of cache lines fetched
system.cpu0.fetch.Cycles                      7022606                       # Number of cycles fetch has run and was not squashing or blocked
system.cpu0.fetch.IcacheSquashes                10112                       # Number of outstanding Icache misses that were squashed
system.cpu0.fetch.Insts                      11507871                       # Number of instructions fetch has processed
system.cpu0.fetch.MiscStallCycles                 102                       # Number of cycles fetch has spent waiting on interrupts, or bad addresses, or out of MSHRs
system.cpu0.fetch.PendingQuiesceStallCycles            7                       # Number of stall cycles due to pending quiesce instructions
system.cpu0.fetch.PendingTrapStallCycles          596                       # Number of stall cycles due to pending traps
system.cpu0.fetch.SquashCycles                 111556                       # Number of cycles fetch has spent squashing
system.cpu0.fetch.branchRate                 0.229183                       # Number of branch fetches per cycle
system.cpu0.fetch.icacheStallCycles           2908108                       # Number of cycles fetch is stalled on an Icache miss
system.cpu0.fetch.predictedBranches            942567                       # Number of branches that fetch has predicted taken
system.cpu0.fetch.rate                       1.133821                       # Number of inst fetches per cycle
system.cpu0.fetch.rateDist::samples           9987197                       # Number of instructions fetched each cycle (Total)
system.cpu0.fetch.rateDist::mean             2.072472                       # Number of instructions fetched each cycle (Total)
system.cpu0.fetch.rateDist::stdev            3.246814                       # Number of instructions fetched each cycle (Total)
system.cpu0.fetch.rateDist::underflows              0      0.00%      0.00% # Number of instructions fetched each cycle (Total)
system.cpu0.fetch.rateDist::0                 6740436     67.49%     67.49% # Number of instructions fetched each cycle (Total)
system.cpu0.fetch.rateDist::1                  130652      1.31%     68.80% # Number of instructions fetched each cycle (Total)
system.cpu0.fetch.rateDist::2                  189894      1.90%     70.70% # Number of instructions fetched each cycle (Total)
system.cpu0.fetch.rateDist::3                  228416      2.29%     72.99% # Number of instructions fetched each cycle (Total)
system.cpu0.fetch.rateDist::4                  174150      1.74%     74.73% # Number of instructions fetched each cycle (Total)
system.cpu0.fetch.rateDist::5                  201819      2.02%     76.75% # Number of instructions fetched each cycle (Total)
system.cpu0.fetch.rateDist::6                  236017      2.36%     79.12% # Number of instructions fetched each cycle (Total)
system.cpu0.fetch.rateDist::7                  305802      3.06%     82.18% # Number of instructions fetched each cycle (Total)
system.cpu0.fetch.rateDist::8                 1780011     17.82%    100.00% # Number of instructions fetched each cycle (Total)
system.cpu0.fetch.rateDist::overflows               0      0.00%    100.00% # Number of instructions fetched each cycle (Total)
system.cpu0.fetch.rateDist::min_value               0                       # Number of instructions fetched each cycle (Total)
system.cpu0.fetch.rateDist::max_value               8                       # Number of instructions fetched each cycle (Total)
system.cpu0.fetch.rateDist::total             9987197                       # Number of instructions fetched each cycle (Total)
system.cpu0.fp_regfile_reads                   317305                       # number of floating regfile reads
system.cpu0.fp_regfile_writes                  204334                       # number of floating regfile writes
system.cpu0.icache.ReadReq_accesses::.cpu0.inst      1463638                       # number of ReadReq accesses(hits+misses)
system.cpu0.icache.ReadReq_accesses::total      1463638                       # number of ReadReq accesses(hits+misses)
system.cpu0.icache.ReadReq_avg_miss_latency::.cpu0.inst 29259.220115                       # average ReadReq miss latency
system.cpu0.icache.ReadReq_avg_miss_latency::total 29259.220115                       # average ReadReq miss latency
system.cpu0.icache.ReadReq_avg_mshr_miss_latency::.cpu0.inst 27080.348806                       # average ReadReq mshr miss latency
system.cpu0.icache.ReadReq_avg_mshr_miss_latency::total 27080.348806                       # average ReadReq mshr miss latency
system.cpu0.icache.ReadReq_hits::.cpu0.inst      1400244                       # number of ReadReq hits
system.cpu0.icache.ReadReq_hits::total        1400244                       # number of ReadReq hits
system.cpu0.icache.ReadReq_miss_latency::.cpu0.inst   1854859000                       # number of ReadReq miss cycles
system.cpu0.icache.ReadReq_miss_latency::total   1854859000                       # number of ReadReq miss cycles
system.cpu0.icache.ReadReq_miss_rate::.cpu0.inst     0.043313                       # miss rate for ReadReq accesses
system.cpu0.icache.ReadReq_miss_rate::total     0.043313                       # miss rate for ReadReq accesses
system.cpu0.icache.ReadReq_misses::.cpu0.inst        63394                       # number of ReadReq misses
system.cpu0.icache.ReadReq_misses::total        63394                       # number of ReadReq misses
system.cpu0.icache.ReadReq_mshr_hits::.cpu0.inst          207                       # number of ReadReq MSHR hits
system.cpu0.icache.ReadReq_mshr_hits::total          207                       # number of ReadReq MSHR hits
system.cpu0.icache.ReadReq_mshr_miss_latency::.cpu0.inst   1711126000                       # number of ReadReq MSHR miss cycles
system.cpu0.icache.ReadReq_mshr_miss_latency::total   1711126000                       # number of ReadReq MSHR miss cycles
system.cpu0.icache.ReadReq_mshr_miss_rate::.cpu0.inst     0.043171                       # mshr miss rate for ReadReq accesses
system.cpu0.icache.ReadReq_mshr_miss_rate::total     0.043171                       # mshr miss rate for ReadReq accesses
system.cpu0.icache.ReadReq_mshr_misses::.cpu0.inst        63187                       # number of ReadReq MSHR misses
system.cpu0.icache.ReadReq_mshr_misses::total        63187                       # number of ReadReq MSHR misses
system.cpu0.icache.avg_blocked_cycles::no_mshrs    26.500000                       # average number of cycles each access was blocked
system.cpu0.icache.avg_blocked_cycles::no_targets          nan                       # average number of cycles each access was blocked
system.cpu0.icache.blocked::no_mshrs                2                       # number of cycles access was blocked
system.cpu0.icache.blocked::no_targets              0                       # number of cycles access was blocked
system.cpu0.icache.blocked_cycles::no_mshrs           53                       # number of cycles access was blocked
system.cpu0.icache.blocked_cycles::no_targets            0                       # number of cycles access was blocked
system.cpu0.icache.demand_accesses::.cpu0.inst      1463638                       # number of demand (read+write) accesses
system.cpu0.icache.demand_accesses::total      1463638                       # number of demand (read+write) accesses
system.cpu0.icache.demand_avg_miss_latency::.cpu0.inst 29259.220115                       # average overall miss latency
system.cpu0.icache.demand_avg_miss_latency::total 29259.220115                       # average overall miss latency
system.cpu0.icache.demand_avg_mshr_miss_latency::.cpu0.inst 27080.348806                       # average overall mshr miss latency
system.cpu0.icache.demand_avg_mshr_miss_latency::total 27080.348806                       # average overall mshr miss latency
system.cpu0.icache.demand_hits::.cpu0.inst      1400244                       # number of demand (read+write) hits
system.cpu0.icache.demand_hits::total         1400244                       # number of demand (read+write) hits
system.cpu0.icache.demand_miss_latency::.cpu0.inst   1854859000                       # number of demand (read+write) miss cycles
system.cpu0.icache.demand_miss_latency::total   1854859000                       # number of demand (read+write) miss cycles
system.cpu0.icache.demand_miss_rate::.cpu0.inst     0.043313                       # miss rate for demand accesses
system.cpu0.icache.demand_miss_rate::total     0.043313                       # miss rate for demand accesses
system.cpu0.icache.demand_misses::.cpu0.inst        63394                       # number of demand (read+write) misses
system.cpu0.icache.demand_misses::total         63394                       # number of demand (read+write) misses
system.cpu0.icache.demand_mshr_hits::.cpu0.inst          207                       # number of demand (read+write) MSHR hits
system.cpu0.icache.demand_mshr_hits::total          207                       # number of demand (read+write) MSHR hits
system.cpu0.icache.demand_mshr_miss_latency::.cpu0.inst   1711126000                       # number of demand (read+write) MSHR miss cycles
system.cpu0.icache.demand_mshr_miss_latency::total   1711126000                       # number of demand (read+write) MSHR miss cycles
system.cpu0.icache.demand_mshr_miss_rate::.cpu0.inst     0.043171                       # mshr miss rate for demand accesses
system.cpu0.icache.demand_mshr_miss_rate::total     0.043171                       # mshr miss rate for demand accesses
system.cpu0.icache.demand_mshr_misses::.cpu0.inst        63187                       # number of demand (read+write) MSHR misses
system.cpu0.icache.demand_mshr_misses::total        63187                       # number of demand (read+write) MSHR misses
system.cpu0.icache.overall_accesses::.cpu0.inst      1463638                       # number of overall (read+write) accesses
system.cpu0.icache.overall_accesses::total      1463638                       # number of overall (read+write) accesses
system.cpu0.icache.overall_avg_miss_latency::.cpu0.inst 29259.220115                       # average overall miss latency
system.cpu0.icache.overall_avg_miss_latency::total 29259.220115                       # average overall miss latency
system.cpu0.icache.overall_avg_mshr_miss_latency::.cpu0.inst 27080.348806                       # average overall mshr miss latency
system.cpu0.icache.overall_avg_mshr_miss_latency::total 27080.348806                       # average overall mshr miss latency
system.cpu0.icache.overall_hits::.cpu0.inst      1400244                       # number of overall hits
system.cpu0.icache.overall_hits::total        1400244                       # number of overall hits
system.cpu0.icache.overall_miss_latency::.cpu0.inst   1854859000                       # number of overall miss cycles
system.cpu0.icache.overall_miss_latency::total   1854859000                       # number of overall miss cycles
system.cpu0.icache.overall_miss_rate::.cpu0.inst     0.043313                       # miss rate for overall accesses
system.cpu0.icache.overall_miss_rate::total     0.043313                       # miss rate for overall accesses
system.cpu0.icache.overall_misses::.cpu0.inst        63394                       # number of overall misses
system.cpu0.icache.overall_misses::total        63394                       # number of overall misses
system.cpu0.icache.overall_mshr_hits::.cpu0.inst          207                       # number of overall MSHR hits
system.cpu0.icache.overall_mshr_hits::total          207                       # number of overall MSHR hits
system.cpu0.icache.overall_mshr_miss_latency::.cpu0.inst   1711126000                       # number of overall MSHR miss cycles
system.cpu0.icache.overall_mshr_miss_latency::total   1711126000                       # number of overall MSHR miss cycles
system.cpu0.icache.overall_mshr_miss_rate::.cpu0.inst     0.043171                       # mshr miss rate for overall accesses
system.cpu0.icache.overall_mshr_miss_rate::total     0.043171                       # mshr miss rate for overall accesses
system.cpu0.icache.overall_mshr_misses::.cpu0.inst        63187                       # number of overall MSHR misses
system.cpu0.icache.overall_mshr_misses::total        63187                       # number of overall MSHR misses
system.cpu0.icache.pwrStateResidencyTicks::UNDEFINED  10149636000                       # Cumulative time (in ticks) in various power states
system.cpu0.icache.replacements                 62930                       # number of replacements
system.cpu0.icache.tags.age_task_id_blocks_1024::0            8                       # Occupied blocks per task id
system.cpu0.icache.tags.age_task_id_blocks_1024::3           19                       # Occupied blocks per task id
system.cpu0.icache.tags.age_task_id_blocks_1024::4          229                       # Occupied blocks per task id
system.cpu0.icache.tags.avg_refs            23.160669                       # Average number of references to valid blocks.
system.cpu0.icache.tags.data_accesses         2990462                       # Number of data accesses
system.cpu0.icache.tags.occ_blocks::.cpu0.inst   255.406097                       # Average occupied blocks per requestor
system.cpu0.icache.tags.occ_percent::.cpu0.inst     0.997680                       # Average percentage of cache occupancy
system.cpu0.icache.tags.occ_percent::total     0.997680                       # Average percentage of cache occupancy
system.cpu0.icache.tags.occ_task_id_blocks::1024          256                       # Occupied blocks per task id
system.cpu0.icache.tags.occ_task_id_percent::1024            1                       # Percentage of cache occupancy per task id
system.cpu0.icache.tags.pwrStateResidencyTicks::UNDEFINED  10149636000                       # Cumulative time (in ticks) in various power states
system.cpu0.icache.tags.sampled_refs            63186                       # Sample count of references to valid blocks.
system.cpu0.icache.tags.tag_accesses          2990462                       # Number of tag accesses
system.cpu0.icache.tags.tagsinuse          255.406097                       # Cycle average of tags in use
system.cpu0.icache.tags.total_refs            1463430                       # Total number of references to valid blocks.
system.cpu0.icache.tags.warmup_cycle           107000                       # Cycle when the warmup percentage was hit.
system.cpu0.idleCycles                         162440                       # Total number of cycles that the CPU has spent unscheduled due to idling
system.cpu0.iew.branchMispredicts               79571                       # Number of branch mispredicts detected at execute
system.cpu0.iew.exec_branches                 2052457                       # Number of branches executed
system.cpu0.iew.exec_nop                            0                       # number of nop insts executed
system.cpu0.iew.exec_rate                    1.853745                       # Inst execution rate
system.cpu0.iew.exec_refs                     4063298                       # number of memory reference insts executed
system.cpu0.iew.exec_stores                   1574293                       # Number of stores executed
system.cpu0.iew.exec_swp                            0                       # number of swp insts executed
system.cpu0.iew.iewBlockCycles                 180878                       # Number of cycles IEW is blocking
system.cpu0.iew.iewDispLoadInsts              2541136                       # Number of dispatched load instructions
system.cpu0.iew.iewDispNonSpecInsts                77                       # Number of dispatched non-speculative instructions
system.cpu0.iew.iewDispSquashedInsts               98                       # Number of squashed instructions skipped by dispatch
system.cpu0.iew.iewDispStoreInsts             1624787                       # Number of dispatched store instructions
system.cpu0.iew.iewDispatchedInsts           19306966                       # Number of instructions dispatched to IQ
system.cpu0.iew.iewExecLoadInsts              2489005                       # Number of load instructions executed
system.cpu0.iew.iewExecSquashedInsts           125528                       # Number of squashed instructions skipped in execute
system.cpu0.iew.iewExecutedInsts             18814843                       # Number of executed instructions
system.cpu0.iew.iewIQFullEvents                   559                       # Number of times the IQ has become full, causing a stall
system.cpu0.iew.iewIdleCycles                       0                       # Number of cycles IEW is idle
system.cpu0.iew.iewLSQFullEvents                42703                       # Number of times the LSQ has become full, causing a stall
system.cpu0.iew.iewSquashCycles                 55778                       # Number of cycles IEW is squashing
system.cpu0.iew.iewUnblockCycles                43319                       # Number of cycles IEW is unblocking
system.cpu0.iew.lsq.thread0.blockedLoads            0                       # Number of blocked loads due to partial load-store forwarding
system.cpu0.iew.lsq.thread0.cacheBlocked           33                       # Number of times an access to memory failed due to the cache being blocked
system.cpu0.iew.lsq.thread0.forwLoads          594807                       # Number of loads that had data forwarded from stores
system.cpu0.iew.lsq.thread0.ignoredResponses         3221                       # Number of memory responses ignored because the instruction is squashed
system.cpu0.iew.lsq.thread0.invAddrLoads            0                       # Number of loads ignored due to an invalid address
system.cpu0.iew.lsq.thread0.invAddrSwpfs            0                       # Number of software prefetches ignored due to an invalid address
system.cpu0.iew.lsq.thread0.memOrderViolation          268                       # Number of memory ordering violations
system.cpu0.iew.lsq.thread0.rescheduledLoads            4                       # Number of loads that were rescheduled
system.cpu0.iew.lsq.thread0.squashedLoads       154888                       # Number of loads squashed
system.cpu0.iew.lsq.thread0.squashedStores       109118                       # Number of stores squashed
system.cpu0.iew.memOrderViolationEvents           268                       # Number of memory order violations
system.cpu0.iew.predictedNotTakenIncorrect        76852                       # Number of branches that were predicted not taken incorrectly
system.cpu0.iew.predictedTakenIncorrect          2719                       # Number of branches that were predicted taken incorrectly
system.cpu0.iew.wb_consumers                 20947774                       # num instructions consuming a value
system.cpu0.iew.wb_count                     18763303                       # cumulative count of insts written-back
system.cpu0.iew.wb_fanout                    0.633077                       # average fanout of values written-back
system.cpu0.iew.wb_producers                 13261563                       # num instructions producing a value
system.cpu0.iew.wb_rate                      1.848667                       # insts written-back per cycle
system.cpu0.iew.wb_sent                      18786064                       # cumulative count of insts sent to commit
system.cpu0.int_regfile_reads                28613795                       # number of integer regfile reads
system.cpu0.int_regfile_writes               14900410                       # number of integer regfile writes
system.cpu0.interrupts.clk_domain.clock         16000                       # Clock period in ticks
system.cpu0.interrupts.pwrStateResidencyTicks::UNDEFINED  10149636000                       # Cumulative time (in ticks) in various power states
system.cpu0.ipc                              0.985257                       # IPC: Instructions Per Cycle
system.cpu0.ipc_total                        0.985257                       # IPC: Total IPC of All Threads
system.cpu0.iq.FU_type_0::No_OpClass            68936      0.36%      0.36% # Type of FU issued
system.cpu0.iq.FU_type_0::IntAlu             14573334     76.94%     77.31% # Type of FU issued
system.cpu0.iq.FU_type_0::IntMult               39355      0.21%     77.51% # Type of FU issued
system.cpu0.iq.FU_type_0::IntDiv                   24      0.00%     77.52% # Type of FU issued
system.cpu0.iq.FU_type_0::FloatAdd              22639      0.12%     77.63% # Type of FU issued
system.cpu0.iq.FU_type_0::FloatCmp                  0      0.00%     77.63% # Type of FU issued
system.cpu0.iq.FU_type_0::FloatCvt                  0      0.00%     77.63% # Type of FU issued
system.cpu0.iq.FU_type_0::FloatMult                 0      0.00%     77.63% # Type of FU issued
system.cpu0.iq.FU_type_0::FloatMultAcc              0      0.00%     77.63% # Type of FU issued
system.cpu0.iq.FU_type_0::FloatDiv                  0      0.00%     77.63% # Type of FU issued
system.cpu0.iq.FU_type_0::FloatMisc                 0      0.00%     77.63% # Type of FU issued
system.cpu0.iq.FU_type_0::FloatSqrt                 0      0.00%     77.63% # Type of FU issued
system.cpu0.iq.FU_type_0::SimdAdd                 378      0.00%     77.64% # Type of FU issued
system.cpu0.iq.FU_type_0::SimdAddAcc                0      0.00%     77.64% # Type of FU issued
system.cpu0.iq.FU_type_0::SimdAlu                 100      0.00%     77.64% # Type of FU issued
system.cpu0.iq.FU_type_0::SimdCmp                   0      0.00%     77.64% # Type of FU issued
system.cpu0.iq.FU_type_0::SimdCvt               27581      0.15%     77.78% # Type of FU issued
system.cpu0.iq.FU_type_0::SimdMisc             106628      0.56%     78.35% # Type of FU issued
system.cpu0.iq.FU_type_0::SimdMult                  0      0.00%     78.35% # Type of FU issued
system.cpu0.iq.FU_type_0::SimdMultAcc               0      0.00%     78.35% # Type of FU issued
system.cpu0.iq.FU_type_0::SimdShift               186      0.00%     78.35% # Type of FU issued
system.cpu0.iq.FU_type_0::SimdShiftAcc              0      0.00%     78.35% # Type of FU issued
system.cpu0.iq.FU_type_0::SimdDiv                   0      0.00%     78.35% # Type of FU issued
system.cpu0.iq.FU_type_0::SimdSqrt                  0      0.00%     78.35% # Type of FU issued
system.cpu0.iq.FU_type_0::SimdFloatAdd              0      0.00%     78.35% # Type of FU issued
system.cpu0.iq.FU_type_0::SimdFloatAlu              0      0.00%     78.35% # Type of FU issued
system.cpu0.iq.FU_type_0::SimdFloatCmp              0      0.00%     78.35% # Type of FU issued
system.cpu0.iq.FU_type_0::SimdFloatCvt              0      0.00%     78.35% # Type of FU issued
system.cpu0.iq.FU_type_0::SimdFloatDiv              0      0.00%     78.35% # Type of FU issued
system.cpu0.iq.FU_type_0::SimdFloatMisc             0      0.00%     78.35% # Type of FU issued
system.cpu0.iq.FU_type_0::SimdFloatMult             0      0.00%     78.35% # Type of FU issued
system.cpu0.iq.FU_type_0::SimdFloatMultAcc            0      0.00%     78.35% # Type of FU issued
system.cpu0.iq.FU_type_0::SimdFloatSqrt             0      0.00%     78.35% # Type of FU issued
system.cpu0.iq.FU_type_0::SimdReduceAdd             0      0.00%     78.35% # Type of FU issued
system.cpu0.iq.FU_type_0::SimdReduceAlu             0      0.00%     78.35% # Type of FU issued
system.cpu0.iq.FU_type_0::SimdReduceCmp             0      0.00%     78.35% # Type of FU issued
system.cpu0.iq.FU_type_0::SimdFloatReduceAdd            0      0.00%     78.35% # Type of FU issued
system.cpu0.iq.FU_type_0::SimdFloatReduceCmp            0      0.00%     78.35% # Type of FU issued
system.cpu0.iq.FU_type_0::SimdAes                   0      0.00%     78.35% # Type of FU issued
system.cpu0.iq.FU_type_0::SimdAesMix                0      0.00%     78.35% # Type of FU issued
system.cpu0.iq.FU_type_0::SimdSha1Hash              0      0.00%     78.35% # Type of FU issued
system.cpu0.iq.FU_type_0::SimdSha1Hash2             0      0.00%     78.35% # Type of FU issued
system.cpu0.iq.FU_type_0::SimdSha256Hash            0      0.00%     78.35% # Type of FU issued
system.cpu0.iq.FU_type_0::SimdSha256Hash2            0      0.00%     78.35% # Type of FU issued
system.cpu0.iq.FU_type_0::SimdShaSigma2             0      0.00%     78.35% # Type of FU issued
system.cpu0.iq.FU_type_0::SimdShaSigma3             0      0.00%     78.35% # Type of FU issued
system.cpu0.iq.FU_type_0::SimdPredAlu               0      0.00%     78.35% # Type of FU issued
system.cpu0.iq.FU_type_0::MemRead             2438841     12.88%     91.22% # Type of FU issued
system.cpu0.iq.FU_type_0::MemWrite            1563490      8.25%     99.48% # Type of FU issued
system.cpu0.iq.FU_type_0::FloatMemRead          64337      0.34%     99.82% # Type of FU issued
system.cpu0.iq.FU_type_0::FloatMemWrite         34545      0.18%    100.00% # Type of FU issued
system.cpu0.iq.FU_type_0::IprAccess                 0      0.00%    100.00% # Type of FU issued
system.cpu0.iq.FU_type_0::InstPrefetch              0      0.00%    100.00% # Type of FU issued
system.cpu0.iq.FU_type_0::total              18940374                       # Type of FU issued
system.cpu0.iq.fp_alu_accesses                 268745                       # Number of floating point alu accesses
system.cpu0.iq.fp_inst_queue_reads             536996                       # Number of floating instruction queue reads
system.cpu0.iq.fp_inst_queue_wakeup_accesses       265365                       # Number of floating instruction queue wakeup accesses
system.cpu0.iq.fp_inst_queue_writes            292356                       # Number of floating instruction queue writes
system.cpu0.iq.fu_busy_cnt                     271607                       # FU busy when requested
system.cpu0.iq.fu_busy_rate                  0.014340                       # FU busy rate (busy events/executed inst)
system.cpu0.iq.fu_full::No_OpClass                  0      0.00%      0.00% # attempts to use FU when none available
system.cpu0.iq.fu_full::IntAlu                 233601     86.01%     86.01% # attempts to use FU when none available
system.cpu0.iq.fu_full::IntMult                     0      0.00%     86.01% # attempts to use FU when none available
system.cpu0.iq.fu_full::IntDiv                      0      0.00%     86.01% # attempts to use FU when none available
system.cpu0.iq.fu_full::FloatAdd                    0      0.00%     86.01% # attempts to use FU when none available
system.cpu0.iq.fu_full::FloatCmp                    0      0.00%     86.01% # attempts to use FU when none available
system.cpu0.iq.fu_full::FloatCvt                    0      0.00%     86.01% # attempts to use FU when none available
system.cpu0.iq.fu_full::FloatMult                   0      0.00%     86.01% # attempts to use FU when none available
system.cpu0.iq.fu_full::FloatMultAcc                0      0.00%     86.01% # attempts to use FU when none available
system.cpu0.iq.fu_full::FloatDiv                    0      0.00%     86.01% # attempts to use FU when none available
system.cpu0.iq.fu_full::FloatMisc                   0      0.00%     86.01% # attempts to use FU when none available
system.cpu0.iq.fu_full::FloatSqrt                   0      0.00%     86.01% # attempts to use FU when none available
system.cpu0.iq.fu_full::SimdAdd                     1      0.00%     86.01% # attempts to use FU when none available
system.cpu0.iq.fu_full::SimdAddAcc                  0      0.00%     86.01% # attempts to use FU when none available
system.cpu0.iq.fu_full::SimdAlu                    12      0.00%     86.01% # attempts to use FU when none available
system.cpu0.iq.fu_full::SimdCmp                     0      0.00%     86.01% # attempts to use FU when none available
system.cpu0.iq.fu_full::SimdCvt                   459      0.17%     86.18% # attempts to use FU when none available
system.cpu0.iq.fu_full::SimdMisc                    7      0.00%     86.18% # attempts to use FU when none available
system.cpu0.iq.fu_full::SimdMult                    0      0.00%     86.18% # attempts to use FU when none available
system.cpu0.iq.fu_full::SimdMultAcc                 0      0.00%     86.18% # attempts to use FU when none available
system.cpu0.iq.fu_full::SimdShift                   0      0.00%     86.18% # attempts to use FU when none available
system.cpu0.iq.fu_full::SimdShiftAcc                0      0.00%     86.18% # attempts to use FU when none available
system.cpu0.iq.fu_full::SimdDiv                     0      0.00%     86.18% # attempts to use FU when none available
system.cpu0.iq.fu_full::SimdSqrt                    0      0.00%     86.18% # attempts to use FU when none available
system.cpu0.iq.fu_full::SimdFloatAdd                0      0.00%     86.18% # attempts to use FU when none available
system.cpu0.iq.fu_full::SimdFloatAlu                0      0.00%     86.18% # attempts to use FU when none available
system.cpu0.iq.fu_full::SimdFloatCmp                0      0.00%     86.18% # attempts to use FU when none available
system.cpu0.iq.fu_full::SimdFloatCvt                0      0.00%     86.18% # attempts to use FU when none available
system.cpu0.iq.fu_full::SimdFloatDiv                0      0.00%     86.18% # attempts to use FU when none available
system.cpu0.iq.fu_full::SimdFloatMisc               0      0.00%     86.18% # attempts to use FU when none available
system.cpu0.iq.fu_full::SimdFloatMult               0      0.00%     86.18% # attempts to use FU when none available
system.cpu0.iq.fu_full::SimdFloatMultAcc            0      0.00%     86.18% # attempts to use FU when none available
system.cpu0.iq.fu_full::SimdFloatSqrt               0      0.00%     86.18% # attempts to use FU when none available
system.cpu0.iq.fu_full::SimdReduceAdd               0      0.00%     86.18% # attempts to use FU when none available
system.cpu0.iq.fu_full::SimdReduceAlu               0      0.00%     86.18% # attempts to use FU when none available
system.cpu0.iq.fu_full::SimdReduceCmp               0      0.00%     86.18% # attempts to use FU when none available
system.cpu0.iq.fu_full::SimdFloatReduceAdd            0      0.00%     86.18% # attempts to use FU when none available
system.cpu0.iq.fu_full::SimdFloatReduceCmp            0      0.00%     86.18% # attempts to use FU when none available
system.cpu0.iq.fu_full::SimdAes                     0      0.00%     86.18% # attempts to use FU when none available
system.cpu0.iq.fu_full::SimdAesMix                  0      0.00%     86.18% # attempts to use FU when none available
system.cpu0.iq.fu_full::SimdSha1Hash                0      0.00%     86.18% # attempts to use FU when none available
system.cpu0.iq.fu_full::SimdSha1Hash2               0      0.00%     86.18% # attempts to use FU when none available
system.cpu0.iq.fu_full::SimdSha256Hash              0      0.00%     86.18% # attempts to use FU when none available
system.cpu0.iq.fu_full::SimdSha256Hash2             0      0.00%     86.18% # attempts to use FU when none available
system.cpu0.iq.fu_full::SimdShaSigma2               0      0.00%     86.18% # attempts to use FU when none available
system.cpu0.iq.fu_full::SimdShaSigma3               0      0.00%     86.18% # attempts to use FU when none available
system.cpu0.iq.fu_full::SimdPredAlu                 0      0.00%     86.18% # attempts to use FU when none available
system.cpu0.iq.fu_full::MemRead                 31622     11.64%     97.83% # attempts to use FU when none available
system.cpu0.iq.fu_full::MemWrite                 5864      2.16%     99.98% # attempts to use FU when none available
system.cpu0.iq.fu_full::FloatMemRead               13      0.00%     99.99% # attempts to use FU when none available
system.cpu0.iq.fu_full::FloatMemWrite              28      0.01%    100.00% # attempts to use FU when none available
system.cpu0.iq.fu_full::IprAccess                   0      0.00%    100.00% # attempts to use FU when none available
system.cpu0.iq.fu_full::InstPrefetch                0      0.00%    100.00% # attempts to use FU when none available
system.cpu0.iq.int_alu_accesses              18874300                       # Number of integer alu accesses
system.cpu0.iq.int_inst_queue_reads          47618393                       # Number of integer instruction queue reads
system.cpu0.iq.int_inst_queue_wakeup_accesses     18497938                       # Number of integer instruction queue wakeup accesses
system.cpu0.iq.int_inst_queue_writes         20378477                       # Number of integer instruction queue writes
system.cpu0.iq.iqInstsAdded                  19306798                       # Number of instructions added to the IQ (excludes non-spec)
system.cpu0.iq.iqInstsIssued                 18940374                       # Number of instructions issued
system.cpu0.iq.iqNonSpecInstsAdded                168                       # Number of non-speculative instructions added to the IQ
system.cpu0.iq.iqSquashedInstsExamined        1363602                       # Number of squashed instructions iterated over during squash; mainly for profiling
system.cpu0.iq.iqSquashedInstsIssued            15840                       # Number of squashed instructions issued
system.cpu0.iq.iqSquashedNonSpecRemoved           106                       # Number of squashed non-spec instructions that were removed
system.cpu0.iq.iqSquashedOperandsExamined      1543786                       # Number of squashed operands that are examined and possibly removed from graph
system.cpu0.iq.issued_per_cycle::samples      9987197                       # Number of insts issued each cycle
system.cpu0.iq.issued_per_cycle::mean        1.896465                       # Number of insts issued each cycle
system.cpu0.iq.issued_per_cycle::stdev       2.396190                       # Number of insts issued each cycle
system.cpu0.iq.issued_per_cycle::underflows            0      0.00%      0.00% # Number of insts issued each cycle
system.cpu0.iq.issued_per_cycle::0            5077564     50.84%     50.84% # Number of insts issued each cycle
system.cpu0.iq.issued_per_cycle::1             653895      6.55%     57.39% # Number of insts issued each cycle
system.cpu0.iq.issued_per_cycle::2             962309      9.64%     67.02% # Number of insts issued each cycle
system.cpu0.iq.issued_per_cycle::3             787835      7.89%     74.91% # Number of insts issued each cycle
system.cpu0.iq.issued_per_cycle::4             560716      5.61%     80.53% # Number of insts issued each cycle
system.cpu0.iq.issued_per_cycle::5             633402      6.34%     86.87% # Number of insts issued each cycle
system.cpu0.iq.issued_per_cycle::6             739390      7.40%     94.27% # Number of insts issued each cycle
system.cpu0.iq.issued_per_cycle::7             424546      4.25%     98.52% # Number of insts issued each cycle
system.cpu0.iq.issued_per_cycle::8             147540      1.48%    100.00% # Number of insts issued each cycle
system.cpu0.iq.issued_per_cycle::overflows            0      0.00%    100.00% # Number of insts issued each cycle
system.cpu0.iq.issued_per_cycle::min_value            0                       # Number of insts issued each cycle
system.cpu0.iq.issued_per_cycle::max_value            8                       # Number of insts issued each cycle
system.cpu0.iq.issued_per_cycle::total        9987197                       # Number of insts issued each cycle
system.cpu0.iq.rate                          1.866113                       # Inst issue rate
system.cpu0.iq.vec_alu_accesses                     0                       # Number of vector alu accesses
system.cpu0.iq.vec_inst_queue_reads                 0                       # Number of vector instruction queue reads
system.cpu0.iq.vec_inst_queue_wakeup_accesses            0                       # Number of vector instruction queue wakeup accesses
system.cpu0.iq.vec_inst_queue_writes                0                       # Number of vector instruction queue writes
system.cpu0.itb.rdAccesses                          0                       # TLB accesses on read requests
system.cpu0.itb.rdMisses                            0                       # TLB misses on read requests
system.cpu0.itb.walker.pwrStateResidencyTicks::UNDEFINED  10149636000                       # Cumulative time (in ticks) in various power states
system.cpu0.itb.wrAccesses                    1463748                       # TLB accesses on write requests
system.cpu0.itb.wrMisses                          265                       # TLB misses on write requests
system.cpu0.memDep0.conflictingLoads           175581                       # Number of conflicting loads.
system.cpu0.memDep0.conflictingStores           58147                       # Number of conflicting stores.
system.cpu0.memDep0.insertedLoads             2541136                       # Number of loads inserted to the mem dependence unit.
system.cpu0.memDep0.insertedStores            1624787                       # Number of stores inserted to the mem dependence unit.
system.cpu0.misc_regfile_reads                8182161                       # number of misc regfile reads
system.cpu0.numCycles                        10149637                       # number of cpu cycles simulated
system.cpu0.numWorkItemsCompleted                   0                       # number of work items this cpu completed
system.cpu0.numWorkItemsStarted                     0                       # number of work items this cpu started
system.cpu0.pwrStateResidencyTicks::ON    10149636000                       # Cumulative time (in ticks) in various power states
system.cpu0.rename.BlockCycles                 233006                       # Number of cycles rename is blocking
system.cpu0.rename.CommittedMaps             20394715                       # Number of HB maps that are committed
system.cpu0.rename.IQFullEvents                  4614                       # Number of times rename has blocked due to IQ full
system.cpu0.rename.IdleCycles                 2712855                       # Number of cycles rename is idle
system.cpu0.rename.LQFullEvents               1057188                       # Number of times rename has blocked due to LQ full
system.cpu0.rename.ROBFullEvents                  296                       # Number of times rename has blocked due to ROB full
system.cpu0.rename.RenameLookups             50400160                       # Number of register rename lookups that rename has made
system.cpu0.rename.RenamedInsts              19748448                       # Number of instructions processed by rename
system.cpu0.rename.RenamedOperands           22163871                       # Number of destination operands rename has renamed
system.cpu0.rename.RunCycles                  2951865                       # Number of cycles rename is running
system.cpu0.rename.SQFullEvents               2953849                       # Number of times rename has blocked due to SQ full
system.cpu0.rename.SquashCycles                 55778                       # Number of cycles rename is squashing
system.cpu0.rename.UnblockCycles              4031705                       # Number of cycles rename is unblocking
system.cpu0.rename.UndoneMaps                 1769104                       # Number of HB maps that are undone due to squashing
system.cpu0.rename.fp_rename_lookups           331990                       # Number of floating rename lookups
system.cpu0.rename.int_rename_lookups        30090578                       # Number of integer rename lookups
system.cpu0.rename.serializeStallCycles          1988                       # count of cycles rename stalled for serializing inst
system.cpu0.rename.serializingInsts                41                       # count of serializing insts renamed
system.cpu0.rename.skidInsts                   909191                       # count of insts added to the skid buffer
system.cpu0.rename.tempSerializingInsts            39                       # count of temporary serializing insts renamed
system.cpu0.rob.rob_reads                    28086366                       # The number of ROB reads
system.cpu0.rob.rob_writes                   38820789                       # The number of ROB writes
system.cpu0.timesIdled                          10638                       # Number of times that the entire CPU went into an idle state and unscheduled itself
system.cpu0.workload.numSyscalls                   26                       # Number of system calls
system.cpu1.branchPred.BTBCorrect                   0                       # Number of correct BTB predictions (this stat may not work properly.
system.cpu1.branchPred.BTBHitPct             0.000000                       # BTB Hit Percentage
system.cpu1.branchPred.BTBHits                      0                       # Number of BTB hits
system.cpu1.branchPred.BTBLookups             2036347                       # Number of BTB lookups
system.cpu1.branchPred.RASInCorrect                 3                       # Number of incorrect RAS predictions.
system.cpu1.branchPred.condIncorrect            56198                       # Number of conditional branches incorrect
system.cpu1.branchPred.condPredicted          2094574                       # Number of conditional branches predicted
system.cpu1.branchPred.indirectHits            834938                       # Number of indirect target hits.
system.cpu1.branchPred.indirectLookups        2036347                       # Number of indirect predictor lookups.
system.cpu1.branchPred.indirectMisses         1201409                       # Number of indirect misses.
system.cpu1.branchPred.lookups                2320273                       # Number of BP lookups
system.cpu1.branchPred.usedRAS                 105227                       # Number of times the RAS was used to get a target.
system.cpu1.branchPredindirectMispredicted        52884                       # Number of mispredicted indirect branches.
system.cpu1.cc_regfile_reads                 10760103                       # number of cc regfile reads
system.cpu1.cc_regfile_writes                 6093923                       # number of cc regfile writes
system.cpu1.commit.amos                             0                       # Number of atomic instructions committed
system.cpu1.commit.branchMispredicts            56274                       # The number of times a branch was mispredicted
system.cpu1.commit.branches                   1987336                       # Number of branches committed
system.cpu1.commit.bw_lim_events              1001694                       # number cycles where commit BW limit reached
system.cpu1.commit.commitNonSpecStalls             62                       # The number of times commit has been forced to stall to communicate backwards
system.cpu1.commit.commitSquashedInsts        1382619                       # The number of squashed insts skipped by commit
system.cpu1.commit.committedInsts             9972122                       # Number of instructions committed
system.cpu1.commit.committedOps              17893347                       # Number of ops (including micro ops) committed
system.cpu1.commit.committed_per_cycle::samples      9784387                       # Number of insts commited each cycle
system.cpu1.commit.committed_per_cycle::mean     1.828765                       # Number of insts commited each cycle
system.cpu1.commit.committed_per_cycle::stdev     2.645316                       # Number of insts commited each cycle
system.cpu1.commit.committed_per_cycle::underflows            0      0.00%      0.00% # Number of insts commited each cycle
system.cpu1.commit.committed_per_cycle::0      5273281     53.89%     53.89% # Number of insts commited each cycle
system.cpu1.commit.committed_per_cycle::1       916033      9.36%     63.26% # Number of insts commited each cycle
system.cpu1.commit.committed_per_cycle::2       678999      6.94%     70.20% # Number of insts commited each cycle
system.cpu1.commit.committed_per_cycle::3      1002301     10.24%     80.44% # Number of insts commited each cycle
system.cpu1.commit.committed_per_cycle::4       420097      4.29%     84.73% # Number of insts commited each cycle
system.cpu1.commit.committed_per_cycle::5       215644      2.20%     86.94% # Number of insts commited each cycle
system.cpu1.commit.committed_per_cycle::6        94113      0.96%     87.90% # Number of insts commited each cycle
system.cpu1.commit.committed_per_cycle::7       182225      1.86%     89.76% # Number of insts commited each cycle
system.cpu1.commit.committed_per_cycle::8      1001694     10.24%    100.00% # Number of insts commited each cycle
system.cpu1.commit.committed_per_cycle::overflows            0      0.00%    100.00% # Number of insts commited each cycle
system.cpu1.commit.committed_per_cycle::min_value            0                       # Number of insts commited each cycle
system.cpu1.commit.committed_per_cycle::max_value            8                       # Number of insts commited each cycle
system.cpu1.commit.committed_per_cycle::total      9784387                       # Number of insts commited each cycle
system.cpu1.commit.fp_insts                    254609                       # Number of committed floating point instructions.
system.cpu1.commit.function_calls               96120                       # Number of function calls committed.
system.cpu1.commit.int_insts                 17731691                       # Number of committed integer instructions.
system.cpu1.commit.loads                      2379684                       # Number of loads committed
system.cpu1.commit.membars                         24                       # Number of memory barriers committed
system.cpu1.commit.op_class_0::No_OpClass        33942      0.19%      0.19% # Class of committed instruction
system.cpu1.commit.op_class_0::IntAlu        13780701     77.02%     77.21% # Class of committed instruction
system.cpu1.commit.op_class_0::IntMult          36925      0.21%     77.41% # Class of committed instruction
system.cpu1.commit.op_class_0::IntDiv              21      0.00%     77.41% # Class of committed instruction
system.cpu1.commit.op_class_0::FloatAdd         22572      0.13%     77.54% # Class of committed instruction
system.cpu1.commit.op_class_0::FloatCmp             0      0.00%     77.54% # Class of committed instruction
system.cpu1.commit.op_class_0::FloatCvt             0      0.00%     77.54% # Class of committed instruction
system.cpu1.commit.op_class_0::FloatMult            0      0.00%     77.54% # Class of committed instruction
system.cpu1.commit.op_class_0::FloatMultAcc            0      0.00%     77.54% # Class of committed instruction
system.cpu1.commit.op_class_0::FloatDiv             0      0.00%     77.54% # Class of committed instruction
system.cpu1.commit.op_class_0::FloatMisc            0      0.00%     77.54% # Class of committed instruction
system.cpu1.commit.op_class_0::FloatSqrt            0      0.00%     77.54% # Class of committed instruction
system.cpu1.commit.op_class_0::SimdAdd            374      0.00%     77.54% # Class of committed instruction
system.cpu1.commit.op_class_0::SimdAddAcc            0      0.00%     77.54% # Class of committed instruction
system.cpu1.commit.op_class_0::SimdAlu            100      0.00%     77.54% # Class of committed instruction
system.cpu1.commit.op_class_0::SimdCmp              0      0.00%     77.54% # Class of committed instruction
system.cpu1.commit.op_class_0::SimdCvt          24104      0.13%     77.68% # Class of committed instruction
system.cpu1.commit.op_class_0::SimdMisc        103198      0.58%     78.25% # Class of committed instruction
system.cpu1.commit.op_class_0::SimdMult             0      0.00%     78.25% # Class of committed instruction
system.cpu1.commit.op_class_0::SimdMultAcc            0      0.00%     78.25% # Class of committed instruction
system.cpu1.commit.op_class_0::SimdShift          186      0.00%     78.25% # Class of committed instruction
system.cpu1.commit.op_class_0::SimdShiftAcc            0      0.00%     78.25% # Class of committed instruction
system.cpu1.commit.op_class_0::SimdDiv              0      0.00%     78.25% # Class of committed instruction
system.cpu1.commit.op_class_0::SimdSqrt             0      0.00%     78.25% # Class of committed instruction
system.cpu1.commit.op_class_0::SimdFloatAdd            0      0.00%     78.25% # Class of committed instruction
system.cpu1.commit.op_class_0::SimdFloatAlu            0      0.00%     78.25% # Class of committed instruction
system.cpu1.commit.op_class_0::SimdFloatCmp            0      0.00%     78.25% # Class of committed instruction
system.cpu1.commit.op_class_0::SimdFloatCvt            0      0.00%     78.25% # Class of committed instruction
system.cpu1.commit.op_class_0::SimdFloatDiv            0      0.00%     78.25% # Class of committed instruction
system.cpu1.commit.op_class_0::SimdFloatMisc            0      0.00%     78.25% # Class of committed instruction
system.cpu1.commit.op_class_0::SimdFloatMult            0      0.00%     78.25% # Class of committed instruction
system.cpu1.commit.op_class_0::SimdFloatMultAcc            0      0.00%     78.25% # Class of committed instruction
system.cpu1.commit.op_class_0::SimdFloatSqrt            0      0.00%     78.25% # Class of committed instruction
system.cpu1.commit.op_class_0::SimdReduceAdd            0      0.00%     78.25% # Class of committed instruction
system.cpu1.commit.op_class_0::SimdReduceAlu            0      0.00%     78.25% # Class of committed instruction
system.cpu1.commit.op_class_0::SimdReduceCmp            0      0.00%     78.25% # Class of committed instruction
system.cpu1.commit.op_class_0::SimdFloatReduceAdd            0      0.00%     78.25% # Class of committed instruction
system.cpu1.commit.op_class_0::SimdFloatReduceCmp            0      0.00%     78.25% # Class of committed instruction
system.cpu1.commit.op_class_0::SimdAes              0      0.00%     78.25% # Class of committed instruction
system.cpu1.commit.op_class_0::SimdAesMix            0      0.00%     78.25% # Class of committed instruction
system.cpu1.commit.op_class_0::SimdSha1Hash            0      0.00%     78.25% # Class of committed instruction
system.cpu1.commit.op_class_0::SimdSha1Hash2            0      0.00%     78.25% # Class of committed instruction
system.cpu1.commit.op_class_0::SimdSha256Hash            0      0.00%     78.25% # Class of committed instruction
system.cpu1.commit.op_class_0::SimdSha256Hash2            0      0.00%     78.25% # Class of committed instruction
system.cpu1.commit.op_class_0::SimdShaSigma2            0      0.00%     78.25% # Class of committed instruction
system.cpu1.commit.op_class_0::SimdShaSigma3            0      0.00%     78.25% # Class of committed instruction
[...]
system.mem_ctrl.totGap                    10149610000                       # Total gap between requests
system.mem_ctrl.totMemAccLat              45841490366                       # Total ticks spent from burst creation until serviced by the DRAM
system.mem_ctrl.totQLat                   39341090366                       # Total ticks spent queuing
system.mem_ctrl.wrPerTurnAround::samples        18880                       # Writes before turning the bus around for reads
system.mem_ctrl.wrPerTurnAround::mean       16.030244                       # Writes before turning the bus around for reads
system.mem_ctrl.wrPerTurnAround::gmean      16.027871                       # Writes before turning the bus around for reads
system.mem_ctrl.wrPerTurnAround::stdev       0.293450                       # Writes before turning the bus around for reads
system.mem_ctrl.wrPerTurnAround::16             18648     98.77%     98.77% # Writes before turning the bus around for reads
system.mem_ctrl.wrPerTurnAround::17                28      0.15%     98.92% # Writes before turning the bus around for reads
system.mem_ctrl.wrPerTurnAround::18               113      0.60%     99.52% # Writes before turning the bus around for reads
system.mem_ctrl.wrPerTurnAround::19                59      0.31%     99.83% # Writes before turning the bus around for reads
system.mem_ctrl.wrPerTurnAround::20                24      0.13%     99.96% # Writes before turning the bus around for reads
system.mem_ctrl.wrPerTurnAround::21                 6      0.03%     99.99% # Writes before turning the bus around for reads
system.mem_ctrl.wrPerTurnAround::23                 2      0.01%    100.00% # Writes before turning the bus around for reads
system.mem_ctrl.wrPerTurnAround::total          18880                       # Writes before turning the bus around for reads
system.mem_ctrl.wrQLenPdf::0                        1                       # What write queue length does an incoming req see
system.mem_ctrl.wrQLenPdf::1                        1                       # What write queue length does an incoming req see
system.mem_ctrl.wrQLenPdf::2                        1                       # What write queue length does an incoming req see
system.mem_ctrl.wrQLenPdf::3                        1                       # What write queue length does an incoming req see
system.mem_ctrl.wrQLenPdf::4                        1                       # What write queue length does an incoming req see
system.mem_ctrl.wrQLenPdf::5                        1                       # What write queue length does an incoming req see
system.mem_ctrl.wrQLenPdf::6                        1                       # What write queue length does an incoming req see
system.mem_ctrl.wrQLenPdf::7                        1                       # What write queue length does an incoming req see
system.mem_ctrl.wrQLenPdf::8                        1                       # What write queue length does an incoming req see
system.mem_ctrl.wrQLenPdf::9                        1                       # What write queue length does an incoming req see
system.mem_ctrl.wrQLenPdf::10                       1                       # What write queue length does an incoming req see
system.mem_ctrl.wrQLenPdf::11                       1                       # What write queue length does an incoming req see
system.mem_ctrl.wrQLenPdf::12                       1                       # What write queue length does an incoming req see
system.mem_ctrl.wrQLenPdf::13                       1                       # What write queue length does an incoming req see
system.mem_ctrl.wrQLenPdf::14                       1                       # What write queue length does an incoming req see
system.mem_ctrl.wrQLenPdf::15                     188                       # What write queue length does an incoming req see
system.mem_ctrl.wrQLenPdf::16                     218                       # What write queue length does an incoming req see
system.mem_ctrl.wrQLenPdf::17                     868                       # What write queue length does an incoming req see
system.mem_ctrl.wrQLenPdf::18                    1438                       # What write queue length does an incoming req see
system.mem_ctrl.wrQLenPdf::19                    1774                       # What write queue length does an incoming req see
system.mem_ctrl.wrQLenPdf::20                    1946                       # What write queue length does an incoming req see
system.mem_ctrl.wrQLenPdf::21                    1974                       # What write queue length does an incoming req see
system.mem_ctrl.wrQLenPdf::22                    2017                       # What write queue length does an incoming req see
system.mem_ctrl.wrQLenPdf::23                    2015                       # What write queue length does an incoming req see
system.mem_ctrl.wrQLenPdf::24                    2044                       # What write queue length does an incoming req see
system.mem_ctrl.wrQLenPdf::25                    2035                       # What write queue length does an incoming req see
system.mem_ctrl.wrQLenPdf::26                    2085                       # What write queue length does an incoming req see
system.mem_ctrl.wrQLenPdf::27                    2026                       # What write queue length does an incoming req see
system.mem_ctrl.wrQLenPdf::28                    2072                       # What write queue length does an incoming req see
system.mem_ctrl.wrQLenPdf::29                    2022                       # What write queue length does an incoming req see
system.mem_ctrl.wrQLenPdf::30                    1965                       # What write queue length does an incoming req see
system.mem_ctrl.wrQLenPdf::31                    1988                       # What write queue length does an incoming req see
system.mem_ctrl.wrQLenPdf::32                    1986                       # What write queue length does an incoming req see
system.mem_ctrl.wrQLenPdf::33                      96                       # What write queue length does an incoming req see
system.mem_ctrl.wrQLenPdf::34                      77                       # What write queue length does an incoming req see
system.mem_ctrl.wrQLenPdf::35                      77                       # What write queue length does an incoming req see
system.mem_ctrl.wrQLenPdf::36                      90                       # What write queue length does an incoming req see
system.mem_ctrl.wrQLenPdf::37                     102                       # What write queue length does an incoming req see
system.mem_ctrl.wrQLenPdf::38                     119                       # What write queue length does an incoming req see
system.mem_ctrl.wrQLenPdf::39                     190                       # What write queue length does an incoming req see
system.mem_ctrl.wrQLenPdf::40                     705                       # What write queue length does an incoming req see
system.mem_ctrl.wrQLenPdf::41                    2606                       # What write queue length does an incoming req see
system.mem_ctrl.wrQLenPdf::42                    5850                       # What write queue length does an incoming req see
system.mem_ctrl.wrQLenPdf::43                    9829                       # What write queue length does an incoming req see
system.mem_ctrl.wrQLenPdf::44                   13187                       # What write queue length does an incoming req see
system.mem_ctrl.wrQLenPdf::45                   15715                       # What write queue length does an incoming req see
system.mem_ctrl.wrQLenPdf::46                   17947                       # What write queue length does an incoming req see
system.mem_ctrl.wrQLenPdf::47                   20465                       # What write queue length does an incoming req see
system.mem_ctrl.wrQLenPdf::48                   23310                       # What write queue length does an incoming req see
system.mem_ctrl.wrQLenPdf::49                   24667                       # What write queue length does an incoming req see
system.mem_ctrl.wrQLenPdf::50                   22800                       # What write queue length does an incoming req see
system.mem_ctrl.wrQLenPdf::51                   20927                       # What write queue length does an incoming req see
system.mem_ctrl.wrQLenPdf::52                   19833                       # What write queue length does an incoming req see
system.mem_ctrl.wrQLenPdf::53                   19297                       # What write queue length does an incoming req see
system.mem_ctrl.wrQLenPdf::54                   19707                       # What write queue length does an incoming req see
system.mem_ctrl.wrQLenPdf::55                   17311                       # What write queue length does an incoming req see
system.mem_ctrl.wrQLenPdf::56                   10322                       # What write queue length does an incoming req see
system.mem_ctrl.wrQLenPdf::57                    4061                       # What write queue length does an incoming req see
system.mem_ctrl.wrQLenPdf::58                    1716                       # What write queue length does an incoming req see
system.mem_ctrl.wrQLenPdf::59                     597                       # What write queue length does an incoming req see
system.mem_ctrl.wrQLenPdf::60                     264                       # What write queue length does an incoming req see
system.mem_ctrl.wrQLenPdf::61                     100                       # What write queue length does an incoming req see
system.mem_ctrl.wrQLenPdf::62                      29                       # What write queue length does an incoming req see
system.mem_ctrl.wrQLenPdf::63                       8                       # What write queue length does an incoming req see
system.mem_ctrl.writeBursts                    302680                       # Number of DRAM write bursts, including those merged in the write queue
system.mem_ctrl.writePktSize::0                     0                       # Write request sizes (log2)
system.mem_ctrl.writePktSize::1                     0                       # Write request sizes (log2)
system.mem_ctrl.writePktSize::2                     0                       # Write request sizes (log2)
system.mem_ctrl.writePktSize::3                     0                       # Write request sizes (log2)
system.mem_ctrl.writePktSize::4                     0                       # Write request sizes (log2)
system.mem_ctrl.writePktSize::5                     0                       # Write request sizes (log2)
system.mem_ctrl.writePktSize::6                302680                       # Write request sizes (log2)
system.mem_ctrl.writeReqs                      302680                       # Number of write requests accepted
system.mem_ctrl.writeRowHitRate                 74.53                       # Row buffer hit rate for writes
system.mem_ctrl.writeRowHits                   225597                       # Number of row buffer hits during writes
system.mem_ctrl_0.actBackEnergy            4575716610                       # Energy for active background per rank (pJ)
system.mem_ctrl_0.actEnergy                1305713220                       # Energy for activate commands per rank (pJ)
system.mem_ctrl_0.actPowerDownEnergy                0                       # Energy for active power-down per rank (pJ)
system.mem_ctrl_0.averagePower             931.380146                       # Core power per rank (mW)
system.mem_ctrl_0.memoryStateTime::IDLE      21446249                       # Time in different power states
system.mem_ctrl_0.memoryStateTime::REF      338780000                       # Time in different power states
system.mem_ctrl_0.memoryStateTime::SREF             0                       # Time in different power states
system.mem_ctrl_0.memoryStateTime::PRE_PDN            0                       # Time in different power states
system.mem_ctrl_0.memoryStateTime::ACT     9789409751                       # Time in different power states
system.mem_ctrl_0.memoryStateTime::ACT_PDN            0                       # Time in different power states
system.mem_ctrl_0.preBackEnergy              44225280                       # Energy for precharge background per rank (pJ)
system.mem_ctrl_0.preEnergy                 693995445                       # Energy for precharge commands per rank (pJ)
system.mem_ctrl_0.prePowerDownEnergy                0                       # Energy for precharge power-down per rank (pJ)
system.mem_ctrl_0.readEnergy               1241781660                       # Energy for read commands per rank (pJ)
system.mem_ctrl_0.refreshEnergy          800875920.000000                       # Energy for refresh commands per rank (pJ)
system.mem_ctrl_0.selfRefreshEnergy                 0                       # Energy for self refresh per rank (pJ)
system.mem_ctrl_0.totalEnergy              9453169455                       # Total energy per rank (pJ)
system.mem_ctrl_0.totalIdleTime                     0                       # Total Idle time Per DRAM Rank
system.mem_ctrl_0.writeEnergy               790861320                       # Energy for write commands per rank (pJ)
system.mem_ctrl_1.actBackEnergy            4572138150                       # Energy for active background per rank (pJ)
system.mem_ctrl_1.actEnergy                1297473660                       # Energy for activate commands per rank (pJ)
system.mem_ctrl_1.actPowerDownEnergy                0                       # Energy for active power-down per rank (pJ)
system.mem_ctrl_1.averagePower             929.083665                       # Core power per rank (mW)
system.mem_ctrl_1.memoryStateTime::IDLE      23881500                       # Time in different power states
system.mem_ctrl_1.memoryStateTime::REF      338780000                       # Time in different power states
system.mem_ctrl_1.memoryStateTime::SREF             0                       # Time in different power states
system.mem_ctrl_1.memoryStateTime::PRE_PDN            0                       # Time in different power states
system.mem_ctrl_1.memoryStateTime::ACT     9786974500                       # Time in different power states
system.mem_ctrl_1.memoryStateTime::ACT_PDN            0                       # Time in different power states
system.mem_ctrl_1.preBackEnergy              47238720                       # Energy for precharge background per rank (pJ)
system.mem_ctrl_1.preEnergy                 689608425                       # Energy for precharge commands per rank (pJ)
system.mem_ctrl_1.prePowerDownEnergy                0                       # Energy for precharge power-down per rank (pJ)
system.mem_ctrl_1.readEnergy               1233549240                       # Energy for read commands per rank (pJ)
system.mem_ctrl_1.refreshEnergy          800875920.000000                       # Energy for refresh commands per rank (pJ)
system.mem_ctrl_1.selfRefreshEnergy                 0                       # Energy for self refresh per rank (pJ)
system.mem_ctrl_1.totalEnergy              9429861015                       # Total energy per rank (pJ)
system.mem_ctrl_1.totalIdleTime                     0                       # Total Idle time Per DRAM Rank
system.mem_ctrl_1.writeEnergy               788976900                       # Energy for write commands per rank (pJ)
system.membus.pkt_count_system.l2cache.mem_side::system.mem_ctrl.port      1032595                       # Packet count per connected master and slave (bytes)
system.membus.pkt_count_system.l2cache.mem_side::total      1032595                       # Packet count per connected master and slave (bytes)
system.membus.pkt_count::total                1032595                       # Packet count per connected master and slave (bytes)
system.membus.pkt_size_system.l2cache.mem_side::system.mem_ctrl.port     41560000                       # Cumulative packet size per connected master and slave (bytes)
system.membus.pkt_size_system.l2cache.mem_side::total     41560000                       # Cumulative packet size per connected master and slave (bytes)
system.membus.pkt_size::total                41560000                       # Cumulative packet size per connected master and slave (bytes)
system.membus.pwrStateResidencyTicks::UNDEFINED  10149636000                       # Cumulative time (in ticks) in various power states
system.membus.reqLayer8.occupancy          1945352972                       # Layer occupancy (ticks)
system.membus.reqLayer8.utilization              19.2                       # Layer utilization (%)
system.membus.respLayer0.occupancy         1856133125                       # Layer occupancy (ticks)
system.membus.respLayer0.utilization             18.3                       # Layer utilization (%)
system.membus.snoopTraffic                          0                       # Total snoop traffic (bytes)
system.membus.snoop_fanout::samples            346703                       # Request fanout histogram
system.membus.snoop_fanout::mean                    0                       # Request fanout histogram
system.membus.snoop_fanout::stdev                   0                       # Request fanout histogram
system.membus.snoop_fanout::underflows              0      0.00%      0.00% # Request fanout histogram
system.membus.snoop_fanout::0                  346703    100.00%    100.00% # Request fanout histogram
system.membus.snoop_fanout::1                       0      0.00%    100.00% # Request fanout histogram
system.membus.snoop_fanout::overflows               0      0.00%    100.00% # Request fanout histogram
system.membus.snoop_fanout::min_value               0                       # Request fanout histogram
system.membus.snoop_fanout::max_value               0                       # Request fanout histogram
system.membus.snoop_fanout::total              346703                       # Request fanout histogram
system.membus.snoop_filter.hit_multi_requests            0                       # Number of requests hitting in the snoop filter with multiple (>1) holders of the requested data.
system.membus.snoop_filter.hit_multi_snoops            0                       # Number of snoops hitting in the snoop filter with multiple (>1) holders of the requested data.
system.membus.snoop_filter.hit_single_requests       339213                       # Number of requests hitting in the snoop filter with a single holder of the requested data.
system.membus.snoop_filter.hit_single_snoops            0                       # Number of snoops hitting in the snoop filter with a single holder of the requested data.
system.membus.snoop_filter.tot_requests        685903                       # Total number of requests made to the snoop filter.
system.membus.snoop_filter.tot_snoops               0                       # Total number of snoops made to the snoop filter.
system.membus.snoops                                0                       # Total snoops (count)
system.membus.trans_dist::ReadResp             283504                       # Transaction distribution
system.membus.trans_dist::WritebackDirty       302680                       # Transaction distribution
system.membus.trans_dist::CleanEvict            36517                       # Transaction distribution
system.membus.trans_dist::UpgradeReq                4                       # Transaction distribution
system.membus.trans_dist::ReadExReq             63194                       # Transaction distribution
system.membus.trans_dist::ReadExResp            63191                       # Transaction distribution
system.membus.trans_dist::ReadSharedReq        283505                       # Transaction distribution

---------- End Simulation Statistics   ----------
