
---------- Begin Simulation Statistics ----------
final_tick                                 9882099000                       # Number of ticks from beginning of simulation (restored from checkpoints and never reset)
host_inst_rate                                  72012                       # Simulator instruction rate (inst/s)
host_mem_usage                                 793556                       # Number of bytes of host memory used
host_op_rate                                   125512                       # Simulator op (including micro ops) rate (op/s)
host_seconds                                   504.86                       # Real time elapsed on the host
host_tick_rate                               19573906                       # Simulator tick rate (ticks/s)
sim_freq                                 1000000000000                       # Frequency of simulated ticks
sim_insts                                    36355840                       # Number of instructions simulated
sim_ops                                      63366001                       # Number of ops (including micro ops) simulated
sim_seconds                                  0.009882                       # Number of seconds simulated
sim_ticks                                  9882099000                       # Number of ticks simulated
system.clk_domain.clock                          1000                       # Clock period in ticks
system.clk_domain.voltage_domain.voltage            1                       # Voltage in Volts
system.cpu0.branchPred.BTBCorrect                   0                       # Number of correct BTB predictions (this stat may not work properly.
system.cpu0.branchPred.BTBHitPct             0.000000                       # BTB Hit Percentage
system.cpu0.branchPred.BTBHits                      0                       # Number of BTB hits
system.cpu0.branchPred.BTBLookups             2024344                       # Number of BTB lookups
system.cpu0.branchPred.RASInCorrect                 2                       # Number of incorrect RAS predictions.
system.cpu0.branchPred.condIncorrect            47505                       # Number of conditional branches incorrect
system.cpu0.branchPred.condPredicted          2053670                       # Number of conditional branches predicted
system.cpu0.branchPred.indirectHits            834886                       # Number of indirect target hits.
system.cpu0.branchPred.indirectLookups        2024344                       # Number of indirect predictor lookups.
system.cpu0.branchPred.indirectMisses         1189458                       # Number of indirect misses.
system.cpu0.branchPred.lookups                2278267                       # Number of BP lookups
system.cpu0.branchPred.usedRAS                 105833                       # Number of times the RAS was used to get a target.
system.cpu0.branchPredindirectMispredicted        46344                       # Number of mispredicted indirect branches.
system.cpu0.cc_regfile_reads                 10700331                       # number of cc regfile reads
system.cpu0.cc_regfile_writes                 6074921                       # number of cc regfile writes
system.cpu0.commit.amos                             0                       # Number of atomic instructions committed
system.cpu0.commit.branchMispredicts            47588                       # The number of times a branch was mispredicted
system.cpu0.commit.branches                   1992938                       # Number of branches committed
system.cpu0.commit.bw_lim_events              1005078                       # number cycles where commit BW limit reached
system.cpu0.commit.commitNonSpecStalls             62                       # The number of times commit has been forced to stall to communicate backwards
system.cpu0.commit.commitSquashedInsts        1139539                       # The number of squashed insts skipped by commit
system.cpu0.commit.committedInsts            10000000                       # Number of instructions committed
system.cpu0.commit.committedOps              17943323                       # Number of ops (including micro ops) committed
system.cpu0.commit.committed_per_cycle::samples      9589194                       # Number of insts commited each cycle
system.cpu0.commit.committed_per_cycle::mean     1.871202                       # Number of insts commited each cycle
system.cpu0.commit.committed_per_cycle::stdev     2.660235                       # Number of insts commited each cycle
system.cpu0.commit.committed_per_cycle::underflows            0      0.00%      0.00% # Number of insts commited each cycle
system.cpu0.commit.committed_per_cycle::0      5062862     52.80%     52.80% # Number of insts commited each cycle
system.cpu0.commit.committed_per_cycle::1       918606      9.58%     62.38% # Number of insts commited each cycle
system.cpu0.commit.committed_per_cycle::2       679250      7.08%     69.46% # Number of insts commited each cycle
system.cpu0.commit.committed_per_cycle::3      1016902     10.60%     80.07% # Number of insts commited each cycle
system.cpu0.commit.committed_per_cycle::4       415500      4.33%     84.40% # Number of insts commited each cycle
system.cpu0.commit.committed_per_cycle::5       215221      2.24%     86.64% # Number of insts commited each cycle
system.cpu0.commit.committed_per_cycle::6        93643      0.98%     87.62% # Number of insts commited each cycle
system.cpu0.commit.committed_per_cycle::7       182132      1.90%     89.52% # Number of insts commited each cycle
system.cpu0.commit.committed_per_cycle::8      1005078     10.48%    100.00% # Number of insts commited each cycle
system.cpu0.commit.committed_per_cycle::overflows            0      0.00%    100.00% # Number of insts commited each cycle
system.cpu0.commit.committed_per_cycle::min_value            0                       # Number of insts commited each cycle
system.cpu0.commit.committed_per_cycle::max_value            8                       # Number of insts commited each cycle
system.cpu0.commit.committed_per_cycle::total      9589194                       # Number of insts commited each cycle
system.cpu0.commit.fp_insts                    255296                       # Number of committed floating point instructions.
system.cpu0.commit.function_calls               96378                       # Number of function calls committed.
system.cpu0.commit.int_insts                 17781229                       # Number of committed integer instructions.
system.cpu0.commit.loads                      2386244                       # Number of loads committed
system.cpu0.commit.membars                         24                       # Number of memory barriers committed
system.cpu0.commit.op_class_0::No_OpClass        34034      0.19%      0.19% # Class of committed instruction
system.cpu0.commit.op_class_0::IntAlu        13819368     77.02%     77.21% # Class of committed instruction
system.cpu0.commit.op_class_0::IntMult          37045      0.21%     77.41% # Class of committed instruction
system.cpu0.commit.op_class_0::IntDiv              21      0.00%     77.41% # Class of committed instruction
system.cpu0.commit.op_class_0::FloatAdd         22633      0.13%     77.54% # Class of committed instruction
system.cpu0.commit.op_class_0::FloatCmp             0      0.00%     77.54% # Class of committed instruction
system.cpu0.commit.op_class_0::FloatCvt             0      0.00%     77.54% # Class of committed instruction
system.cpu0.commit.op_class_0::FloatMult            0      0.00%     77.54% # Class of committed instruction
system.cpu0.commit.op_class_0::FloatMultAcc            0      0.00%     77.54% # Class of committed instruction
system.cpu0.commit.op_class_0::FloatDiv             0      0.00%     77.54% # Class of committed instruction
system.cpu0.commit.op_class_0::FloatMisc            0      0.00%     77.54% # Class of committed instruction
system.cpu0.commit.op_class_0::FloatSqrt            0      0.00%     77.54% # Class of committed instruction
system.cpu0.commit.op_class_0::SimdAdd            374      0.00%     77.54% # Class of committed instruction
system.cpu0.commit.op_class_0::SimdAddAcc            0      0.00%     77.54% # Class of committed instruction
system.cpu0.commit.op_class_0::SimdAlu            100      0.00%     77.54% # Class of committed instruction
system.cpu0.commit.op_class_0::SimdCmp              0      0.00%     77.54% # Class of committed instruction
system.cpu0.commit.op_class_0::SimdCvt          24170      0.13%     77.68% # Class of committed instruction
system.cpu0.commit.op_class_0::SimdMisc        103481      0.58%     78.25% # Class of committed instruction
system.cpu0.commit.op_class_0::SimdMult             0      0.00%     78.25% # Class of committed instruction
system.cpu0.commit.op_class_0::SimdMultAcc            0      0.00%     78.25% # Class of committed instruction
system.cpu0.commit.op_class_0::SimdShift          186      0.00%     78.25% # Class of committed instruction
system.cpu0.commit.op_class_0::SimdShiftAcc            0      0.00%     78.25% # Class of committed instruction
system.cpu0.commit.op_class_0::SimdDiv              0      0.00%     78.25% # Class of committed instruction
system.cpu0.commit.op_class_0::SimdSqrt             0      0.00%     78.25% # Class of committed instruction
system.cpu0.commit.op_class_0::SimdFloatAdd            0      0.00%     78.25% # Class of committed instruction
system.cpu0.commit.op_class_0::SimdFloatAlu            0      0.00%     78.25% # Class of committed instruction
system.cpu0.commit.op_class_0::SimdFloatCmp            0      0.00%     78.25% # Class of committed instruction
system.cpu0.commit.op_class_0::SimdFloatCvt            0      0.00%     78.25% # Class of committed instruction
system.cpu0.commit.op_class_0::SimdFloatDiv            0      0.00%     78.25% # Class of committed instruction
system.cpu0.commit.op_class_0::SimdFloatMisc            0      0.00%     78.25% # Class of committed instruction
system.cpu0.commit.op_class_0::SimdFloatMult            0      0.00%     78.25% # Class of committed instruction
system.cpu0.commit.op_class_0::SimdFloatMultAcc            0      0.00%     78.25% # Class of committed instruction
system.cpu0.commit.op_class_0::SimdFloatSqrt            0      0.00%     78.25% # Class of committed instruction
system.cpu0.commit.op_class_0::SimdReduceAdd            0      0.00%     78.25% # Class of committed instruction
system.cpu0.commit.op_class_0::SimdReduceAlu            0      0.00%     78.25% # Class of committed instruction
system.cpu0.commit.op_class_0::SimdReduceCmp            0      0.00%     78.25% # Class of committed instruction
system.cpu0.commit.op_class_0::SimdFloatReduceAdd            0      0.00%     78.25% # Class of committed instruction
system.cpu0.commit.op_class_0::SimdFloatReduceCmp            0      0.00%     78.25% # Class of committed instruction
system.cpu0.commit.op_class_0::SimdAes              0      0.00%     78.25% # Class of committed instruction
system.cpu0.commit.op_class_0::SimdAesMix            0      0.00%     78.25% # Class of committed instruction
system.cpu0.commit.op_class_0::SimdSha1Hash            0      0.00%     78.25% # Class of committed instruction
system.cpu0.commit.op_class_0::SimdSha1Hash2            0      0.00%     78.25% # Class of committed instruction
system.cpu0.commit.op_class_0::SimdSha256Hash            0      0.00%     78.25% # Class of committed instruction
system.cpu0.commit.op_class_0::SimdSha256Hash2            0      0.00%     78.25% # Class of committed instruction
system.cpu0.commit.op_class_0::SimdShaSigma2            0      0.00%     78.25% # Class of committed instruction
system.cpu0.commit.op_class_0::SimdShaSigma3            0      0.00%     78.25% # Class of committed instruction
system.cpu0.commit.op_class_0::SimdPredAlu            0      0.00%     78.25% # Class of committed instruction
system.cpu0.commit.op_class_0::MemRead        2328174     12.98%     91.23% # Class of committed instruction
system.cpu0.commit.op_class_0::MemWrite       1481212      8.25%     99.48% # Class of committed instruction
system.cpu0.commit.op_class_0::FloatMemRead        58070      0.32%     99.81% # Class of committed instruction
system.cpu0.commit.op_class_0::FloatMemWrite        34455      0.19%    100.00% # Class of committed instruction
system.cpu0.commit.op_class_0::IprAccess            0      0.00%    100.00% # Class of committed instruction
system.cpu0.commit.op_class_0::InstPrefetch            0      0.00%    100.00% # Class of committed instruction
system.cpu0.commit.op_class_0::total         17943323                       # Class of committed instruction
system.cpu0.commit.refs                       3901911                       # Number of memory references committed
system.cpu0.commit.swp_count                        0                       # Number of s/w prefetches committed
system.cpu0.commit.vec_insts                        0                       # Number of committed Vector instructions.
system.cpu0.committedInsts                   10000000                       # Number of Instructions Simulated
system.cpu0.committedOps                     17943323                       # Number of Ops (including micro ops) Simulated
system.cpu0.cpi                              0.988210                       # CPI: Cycles Per Instruction
system.cpu0.cpi_total                        0.988210                       # CPI: Total CPI of All Threads
system.cpu0.dcache.ReadReq_accesses::.cpu0.data      1890811                       # number of ReadReq accesses(hits+misses)
system.cpu0.dcache.ReadReq_accesses::total      1890811                       # number of ReadReq accesses(hits+misses)
system.cpu0.dcache.ReadReq_avg_miss_latency::.cpu0.data 152879.877941                       # average ReadReq miss latency
system.cpu0.dcache.ReadReq_avg_miss_latency::total 152879.877941                       # average ReadReq miss latency
system.cpu0.dcache.ReadReq_avg_mshr_miss_latency::.cpu0.data 155302.607347                       # average ReadReq mshr miss latency
system.cpu0.dcache.ReadReq_avg_mshr_miss_latency::total 155302.607347                       # average ReadReq mshr miss latency
system.cpu0.dcache.ReadReq_hits::.cpu0.data      1873770                       # number of ReadReq hits
system.cpu0.dcache.ReadReq_hits::total        1873770                       # number of ReadReq hits
system.cpu0.dcache.ReadReq_miss_latency::.cpu0.data   2605226000                       # number of ReadReq miss cycles
system.cpu0.dcache.ReadReq_miss_latency::total   2605226000                       # number of ReadReq miss cycles
system.cpu0.dcache.ReadReq_miss_rate::.cpu0.data     0.009013                       # miss rate for ReadReq accesses
system.cpu0.dcache.ReadReq_miss_rate::total     0.009013                       # miss rate for ReadReq accesses
system.cpu0.dcache.ReadReq_misses::.cpu0.data        17041                       # number of ReadReq misses
system.cpu0.dcache.ReadReq_misses::total        17041                       # number of ReadReq misses
system.cpu0.dcache.ReadReq_mshr_hits::.cpu0.data         6724                       # number of ReadReq MSHR hits
system.cpu0.dcache.ReadReq_mshr_hits::total         6724                       # number of ReadReq MSHR hits
system.cpu0.dcache.ReadReq_mshr_miss_latency::.cpu0.data   1602257000                       # number of ReadReq MSHR miss cycles
system.cpu0.dcache.ReadReq_mshr_miss_latency::total   1602257000                       # number of ReadReq MSHR miss cycles
system.cpu0.dcache.ReadReq_mshr_miss_rate::.cpu0.data     0.005456                       # mshr miss rate for ReadReq accesses
system.cpu0.dcache.ReadReq_mshr_miss_rate::total     0.005456                       # mshr miss rate for ReadReq accesses
system.cpu0.dcache.ReadReq_mshr_misses::.cpu0.data        10317                       # number of ReadReq MSHR misses
system.cpu0.dcache.ReadReq_mshr_misses::total        10317                       # number of ReadReq MSHR misses
system.cpu0.dcache.WriteReq_accesses::.cpu0.data      1515646                       # number of WriteReq accesses(hits+misses)
system.cpu0.dcache.WriteReq_accesses::total      1515646                       # number of WriteReq accesses(hits+misses)
system.cpu0.dcache.WriteReq_avg_miss_latency::.cpu0.data 142386.098651                       # average WriteReq miss latency
system.cpu0.dcache.WriteReq_avg_miss_latency::total 142386.098651                       # average WriteReq miss latency
system.cpu0.dcache.WriteReq_avg_mshr_miss_latency::.cpu0.data 153999.199726                       # average WriteReq mshr miss latency
system.cpu0.dcache.WriteReq_avg_mshr_miss_latency::total 153999.199726                       # average WriteReq mshr miss latency
system.cpu0.dcache.WriteReq_hits::.cpu0.data      1486138                       # number of WriteReq hits
system.cpu0.dcache.WriteReq_hits::total       1486138                       # number of WriteReq hits
system.cpu0.dcache.WriteReq_miss_latency::.cpu0.data   4201528999                       # number of WriteReq miss cycles
system.cpu0.dcache.WriteReq_miss_latency::total   4201528999                       # number of WriteReq miss cycles
system.cpu0.dcache.WriteReq_miss_rate::.cpu0.data     0.019469                       # miss rate for WriteReq accesses
system.cpu0.dcache.WriteReq_miss_rate::total     0.019469                       # miss rate for WriteReq accesses
system.cpu0.dcache.WriteReq_misses::.cpu0.data        29508                       # number of WriteReq misses
system.cpu0.dcache.WriteReq_misses::total        29508                       # number of WriteReq misses
system.cpu0.dcache.WriteReq_mshr_hits::.cpu0.data         3267                       # number of WriteReq MSHR hits
system.cpu0.dcache.WriteReq_mshr_hits::total         3267                       # number of WriteReq MSHR hits
system.cpu0.dcache.WriteReq_mshr_miss_latency::.cpu0.data   4041093000                       # number of WriteReq MSHR miss cycles
system.cpu0.dcache.WriteReq_mshr_miss_latency::total   4041093000                       # number of WriteReq MSHR miss cycles
system.cpu0.dcache.WriteReq_mshr_miss_rate::.cpu0.data     0.017313                       # mshr miss rate for WriteReq accesses
system.cpu0.dcache.WriteReq_mshr_miss_rate::total     0.017313                       # mshr miss rate for WriteReq accesses
system.cpu0.dcache.WriteReq_mshr_misses::.cpu0.data        26241                       # number of WriteReq MSHR misses
system.cpu0.dcache.WriteReq_mshr_misses::total        26241                       # number of WriteReq MSHR misses
system.cpu0.dcache.avg_blocked_cycles::no_mshrs    65.488889                       # average number of cycles each access was blocked
system.cpu0.dcache.avg_blocked_cycles::no_targets          nan                       # average number of cycles each access was blocked
system.cpu0.dcache.blocked::no_mshrs               45                       # number of cycles access was blocked
system.cpu0.dcache.blocked::no_targets              0                       # number of cycles access was blocked
system.cpu0.dcache.blocked_cycles::no_mshrs         2947                       # number of cycles access was blocked
system.cpu0.dcache.blocked_cycles::no_targets            0                       # number of cycles access was blocked
system.cpu0.dcache.demand_accesses::.cpu0.data      3406457                       # number of demand (read+write) accesses
system.cpu0.dcache.demand_accesses::total      3406457                       # number of demand (read+write) accesses
system.cpu0.dcache.demand_avg_miss_latency::.cpu0.data 146227.738491                       # average overall miss latency
system.cpu0.dcache.demand_avg_miss_latency::total 146227.738491                       # average overall miss latency
system.cpu0.dcache.demand_avg_mshr_miss_latency::.cpu0.data 154367.033208                       # average overall mshr miss latency
system.cpu0.dcache.demand_avg_mshr_miss_latency::total 154367.033208                       # average overall mshr miss latency
system.cpu0.dcache.demand_hits::.cpu0.data      3359908                       # number of demand (read+write) hits
system.cpu0.dcache.demand_hits::total         3359908                       # number of demand (read+write) hits
system.cpu0.dcache.demand_miss_latency::.cpu0.data   6806754999                       # number of demand (read+write) miss cycles
system.cpu0.dcache.demand_miss_latency::total   6806754999                       # number of demand (read+write) miss cycles
system.cpu0.dcache.demand_miss_rate::.cpu0.data     0.013665                       # miss rate for demand accesses
system.cpu0.dcache.demand_miss_rate::total     0.013665                       # miss rate for demand accesses
system.cpu0.dcache.demand_misses::.cpu0.data        46549                       # number of demand (read+write) misses
system.cpu0.dcache.demand_misses::total         46549                       # number of demand (read+write) misses
system.cpu0.dcache.demand_mshr_hits::.cpu0.data         9991                       # number of demand (read+write) MSHR hits
system.cpu0.dcache.demand_mshr_hits::total         9991                       # number of demand (read+write) MSHR hits
system.cpu0.dcache.demand_mshr_miss_latency::.cpu0.data   5643350000                       # number of demand (read+write) MSHR miss cycles
system.cpu0.dcache.demand_mshr_miss_latency::total   5643350000                       # number of demand (read+write) MSHR miss cycles
system.cpu0.dcache.demand_mshr_miss_rate::.cpu0.data     0.010732                       # mshr miss rate for demand accesses
system.cpu0.dcache.demand_mshr_miss_rate::total     0.010732                       # mshr miss rate for demand accesses
system.cpu0.dcache.demand_mshr_misses::.cpu0.data        36558                       # number of demand (read+write) MSHR misses
system.cpu0.dcache.demand_mshr_misses::total        36558                       # number of demand (read+write) MSHR misses
system.cpu0.dcache.overall_accesses::.cpu0.data      3406457                       # number of overall (read+write) accesses
system.cpu0.dcache.overall_accesses::total      3406457                       # number of overall (read+write) accesses
system.cpu0.dcache.overall_avg_miss_latency::.cpu0.data 146227.738491                       # average overall miss latency
system.cpu0.dcache.overall_avg_miss_latency::total 146227.738491                       # average overall miss latency
system.cpu0.dcache.overall_avg_mshr_miss_latency::.cpu0.data 154367.033208                       # average overall mshr miss latency
system.cpu0.dcache.overall_avg_mshr_miss_latency::total 154367.033208                       # average overall mshr miss latency
system.cpu0.dcache.overall_hits::.cpu0.data      3359908                       # number of overall hits
system.cpu0.dcache.overall_hits::total        3359908                       # number of overall hits
system.cpu0.dcache.overall_miss_latency::.cpu0.data   6806754999                       # number of overall miss cycles
system.cpu0.dcache.overall_miss_latency::total   6806754999                       # number of overall miss cycles
system.cpu0.dcache.overall_miss_rate::.cpu0.data     0.013665                       # miss rate for overall accesses
system.cpu0.dcache.overall_miss_rate::total     0.013665                       # miss rate for overall accesses
system.cpu0.dcache.overall_misses::.cpu0.data        46549                       # number of overall misses
system.cpu0.dcache.overall_misses::total        46549                       # number of overall misses
system.cpu0.dcache.overall_mshr_hits::.cpu0.data         9991                       # number of overall MSHR hits
system.cpu0.dcache.overall_mshr_hits::total         9991                       # number of overall MSHR hits
system.cpu0.dcache.overall_mshr_miss_latency::.cpu0.data   5643350000                       # number of overall MSHR miss cycles
system.cpu0.dcache.overall_mshr_miss_latency::total   5643350000                       # number of overall MSHR miss cycles
system.cpu0.dcache.overall_mshr_miss_rate::.cpu0.data     0.010732                       # mshr miss rate for overall accesses
system.cpu0.dcache.overall_mshr_miss_rate::total     0.010732                       # mshr miss rate for overall accesses
system.cpu0.dcache.overall_mshr_misses::.cpu0.data        36558                       # number of overall MSHR misses
system.cpu0.dcache.overall_mshr_misses::total        36558                       # number of overall MSHR misses
system.cpu0.dcache.pwrStateResidencyTicks::UNDEFINED   9882099000                       # Cumulative time (in ticks) in various power states
system.cpu0.dcache.replacements                 35533                       # number of replacements
system.cpu0.dcache.tags.age_task_id_blocks_1024::0           36                       # Occupied blocks per task id
system.cpu0.dcache.tags.age_task_id_blocks_1024::1          312                       # Occupied blocks per task id
system.cpu0.dcache.tags.age_task_id_blocks_1024::2          633                       # Occupied blocks per task id
system.cpu0.dcache.tags.age_task_id_blocks_1024::3           43                       # Occupied blocks per task id
system.cpu0.dcache.tags.avg_refs            92.908745                       # Average number of references to valid blocks.
system.cpu0.dcache.tags.data_accesses         6849471                       # Number of data accesses
system.cpu0.dcache.tags.occ_blocks::.cpu0.data  1006.195079                       # Average occupied blocks per requestor
system.cpu0.dcache.tags.occ_percent::.cpu0.data     0.982612                       # Average percentage of cache occupancy
system.cpu0.dcache.tags.occ_percent::total     0.982612                       # Average percentage of cache occupancy
system.cpu0.dcache.tags.occ_task_id_blocks::1024         1024                       # Occupied blocks per task id
system.cpu0.dcache.tags.occ_task_id_percent::1024            1                       # Percentage of cache occupancy per task id
system.cpu0.dcache.tags.pwrStateResidencyTicks::UNDEFINED   9882099000                       # Cumulative time (in ticks) in various power states
system.cpu0.dcache.tags.sampled_refs            36557                       # Sample count of references to valid blocks.
system.cpu0.dcache.tags.tag_accesses          6849471                       # Number of tag accesses
system.cpu0.dcache.tags.tagsinuse         1006.195079                       # Cycle average of tags in use
system.cpu0.dcache.tags.total_refs            3396465                       # Total number of references to valid blocks.
system.cpu0.dcache.tags.warmup_cycle           222000                       # Cycle when the warmup percentage was hit.
system.cpu0.dcache.writebacks::.writebacks        34553                       # number of writebacks
system.cpu0.dcache.writebacks::total            34553                       # number of writebacks
system.cpu0.decode.BlockedCycles              4069983                       # Number of cycles decode is blocked
system.cpu0.decode.DecodedInsts              19767917                       # Number of instructions handled by decode
system.cpu0.decode.IdleCycles                 2624317                       # Number of cycles decode is idle
system.cpu0.decode.RunCycles                  2825232                       # Number of cycles decode is running
system.cpu0.decode.SquashCycles                 47840                       # Number of cycles decode is squashing
system.cpu0.decode.UnblockCycles               190127                       # Number of cycles decode is unblocking
system.cpu0.dtb.rdAccesses                    2487589                       # TLB accesses on read requests
system.cpu0.dtb.rdMisses                          183                       # TLB misses on read requests
system.cpu0.dtb.walker.pwrStateResidencyTicks::UNDEFINED   9882099000                       # Cumulative time (in ticks) in various power states
system.cpu0.dtb.wrAccesses                    1570410                       # TLB accesses on write requests
system.cpu0.dtb.wrMisses                          616                       # TLB misses on write requests
system.cpu0.fetch.Branches                    2278267                       # Number of branches that fetch encountered
system.cpu0.fetch.CacheLines                  1449310                       # Number of cache lines fetched
system.cpu0.fetch.Cycles                      6806493                       # Number of cycles fetch has run and was not squashing or blocked
system.cpu0.fetch.IcacheSquashes                 6746                       # Number of outstanding Icache misses that were squashed
system.cpu0.fetch.Insts                      11335232                       # Number of instructions fetch has processed
system.cpu0.fetch.MiscStallCycles                  94                       # Number of cycles fetch has spent waiting on interrupts, or bad addresses, or out of MSHRs
system.cpu0.fetch.PendingQuiesceStallCycles            7                       # Number of stall cycles due to pending quiesce instructions
system.cpu0.fetch.PendingTrapStallCycles          545                       # Number of stall cycles due to pending traps
system.cpu0.fetch.SquashCycles                  95680                       # Number of cycles fetch has spent squashing
system.cpu0.fetch.branchRate                 0.230545                       # Number of branch fetches per cycle
system.cpu0.fetch.icacheStallCycles           2902520                       # Number of cycles fetch is stalled on an Icache miss
system.cpu0.fetch.predictedBranches            940719                       # Number of branches that fetch has predicted taken
system.cpu0.fetch.rate                       1.147047                       # Number of inst fetches per cycle
system.cpu0.fetch.rateDist::samples           9757499                       # Number of instructions fetched each cycle (Total)
system.cpu0.fetch.rateDist::mean             2.088298                       # Number of instructions fetched each cycle (Total)
system.cpu0.fetch.rateDist::stdev            3.250908                       # Number of instructions fetched each cycle (Total)
system.cpu0.fetch.rateDist::underflows              0      0.00%      0.00% # Number of instructions fetched each cycle (Total)
system.cpu0.fetch.rateDist::0                 6557413     67.20%     67.20% # Number of instructions fetched each cycle (Total)
system.cpu0.fetch.rateDist::1                  124880      1.28%     68.48% # Number of instructions fetched each cycle (Total)
system.cpu0.fetch.rateDist::2                  186917      1.92%     70.40% # Number of instructions fetched each cycle (Total)
system.cpu0.fetch.rateDist::3                  228928      2.35%     72.75% # Number of instructions fetched each cycle (Total)
system.cpu0.fetch.rateDist::4                  175710      1.80%     74.55% # Number of instructions fetched each cycle (Total)
system.cpu0.fetch.rateDist::5                  203691      2.09%     76.63% # Number of instructions fetched each cycle (Total)
system.cpu0.fetch.rateDist::6                  234088      2.40%     79.03% # Number of instructions fetched each cycle (Total)
system.cpu0.fetch.rateDist::7                  301736      3.09%     82.13% # Number of instructions fetched each cycle (Total)
system.cpu0.fetch.rateDist::8                 1744136     17.87%    100.00% # Number of instructions fetched each cycle (Total)
system.cpu0.fetch.rateDist::overflows               0      0.00%    100.00% # Number of instructions fetched each cycle (Total)
system.cpu0.fetch.rateDist::min_value               0                       # Number of instructions fetched each cycle (Total)
system.cpu0.fetch.rateDist::max_value               8                       # Number of instructions fetched each cycle (Total)
system.cpu0.fetch.rateDist::total             9757499                       # Number of instructions fetched each cycle (Total)
system.cpu0.fp_regfile_reads                   317306                       # number of floating regfile reads
system.cpu0.fp_regfile_writes                  204374                       # number of floating regfile writes
system.cpu0.icache.ReadReq_accesses::.cpu0.inst      1449310                       # number of ReadReq accesses(hits+misses)
system.cpu0.icache.ReadReq_accesses::total      1449310                       # number of ReadReq accesses(hits+misses)
system.cpu0.icache.ReadReq_avg_miss_latency::.cpu0.inst 28493.647081                       # average ReadReq miss latency
system.cpu0.icache.ReadReq_avg_miss_latency::total 28493.647081                       # average ReadReq miss latency
system.cpu0.icache.ReadReq_avg_mshr_miss_latency::.cpu0.inst 26316.066530                       # average ReadReq mshr miss latency
system.cpu0.icache.ReadReq_avg_mshr_miss_latency::total 26316.066530                       # average ReadReq mshr miss latency
system.cpu0.icache.ReadReq_hits::.cpu0.inst      1386032                       # number of ReadReq hits
system.cpu0.icache.ReadReq_hits::total        1386032                       # number of ReadReq hits
system.cpu0.icache.ReadReq_miss_latency::.cpu0.inst   1803021000                       # number of ReadReq miss cycles
system.cpu0.icache.ReadReq_miss_latency::total   1803021000                       # number of ReadReq miss cycles
system.cpu0.icache.ReadReq_miss_rate::.cpu0.inst     0.043661                       # miss rate for ReadReq accesses
system.cpu0.icache.ReadReq_miss_rate::total     0.043661                       # miss rate for ReadReq accesses
system.cpu0.icache.ReadReq_misses::.cpu0.inst        63278                       # number of ReadReq misses
system.cpu0.icache.ReadReq_misses::total        63278                       # number of ReadReq misses
system.cpu0.icache.ReadReq_mshr_hits::.cpu0.inst          209                       # number of ReadReq MSHR hits
system.cpu0.icache.ReadReq_mshr_hits::total          209                       # number of ReadReq MSHR hits
system.cpu0.icache.ReadReq_mshr_miss_latency::.cpu0.inst   1659728000                       # number of ReadReq MSHR miss cycles
system.cpu0.icache.ReadReq_mshr_miss_latency::total   1659728000                       # number of ReadReq MSHR miss cycles
system.cpu0.icache.ReadReq_mshr_miss_rate::.cpu0.inst     0.043517                       # mshr miss rate for ReadReq accesses
system.cpu0.icache.ReadReq_mshr_miss_rate::total     0.043517                       # mshr miss rate for ReadReq accesses
system.cpu0.icache.ReadReq_mshr_misses::.cpu0.inst        63069                       # number of ReadReq MSHR misses
system.cpu0.icache.ReadReq_mshr_misses::total        63069                       # number of ReadReq MSHR misses
system.cpu0.icache.avg_blocked_cycles::no_mshrs    17.250000                       # average number of cycles each access was blocked
system.cpu0.icache.avg_blocked_cycles::no_targets          nan                       # average number of cycles each access was blocked
system.cpu0.icache.blocked::no_mshrs                4                       # number of cycles access was blocked
system.cpu0.icache.blocked::no_targets              0                       # number of cycles access was blocked
system.cpu0.icache.blocked_cycles::no_mshrs           69                       # number of cycles access was blocked
system.cpu0.icache.blocked_cycles::no_targets            0                       # number of cycles access was blocked
system.cpu0.icache.demand_accesses::.cpu0.inst      1449310                       # number of demand (read+write) accesses
system.cpu0.icache.demand_accesses::total      1449310                       # number of demand (read+write) accesses
system.cpu0.icache.demand_avg_miss_latency::.cpu0.inst 28493.647081                       # average overall miss latency
system.cpu0.icache.demand_avg_miss_latency::total 28493.647081                       # average overall miss latency
system.cpu0.icache.demand_avg_mshr_miss_latency::.cpu0.inst 26316.066530                       # average overall mshr miss latency
system.cpu0.icache.demand_avg_mshr_miss_latency::total 26316.066530                       # average overall mshr miss latency
system.cpu0.icache.demand_hits::.cpu0.inst      1386032                       # number of demand (read+write) hits
system.cpu0.icache.demand_hits::total         1386032                       # number of demand (read+write) hits
system.cpu0.icache.demand_miss_latency::.cpu0.inst   1803021000                       # number of demand (read+write) miss cycles
system.cpu0.icache.demand_miss_latency::total   1803021000                       # number of demand (read+write) miss cycles
system.cpu0.icache.demand_miss_rate::.cpu0.inst     0.043661                       # miss rate for demand accesses
system.cpu0.icache.demand_miss_rate::total     0.043661                       # miss rate for demand accesses
system.cpu0.icache.demand_misses::.cpu0.inst        63278                       # number of demand (read+write) misses
system.cpu0.icache.demand_misses::total         63278                       # number of demand (read+write) misses
system.cpu0.icache.demand_mshr_hits::.cpu0.inst          209                       # number of demand (read+write) MSHR hits
system.cpu0.icache.demand_mshr_hits::total          209                       # number of demand (read+write) MSHR hits
system.cpu0.icache.demand_mshr_miss_latency::.cpu0.inst   1659728000                       # number of demand (read+write) MSHR miss cycles
system.cpu0.icache.demand_mshr_miss_latency::total   1659728000                       # number of demand (read+write) MSHR miss cycles
system.cpu0.icache.demand_mshr_miss_rate::.cpu0.inst     0.043517                       # mshr miss rate for demand accesses
system.cpu0.icache.demand_mshr_miss_rate::total     0.043517                       # mshr miss rate for demand accesses
system.cpu0.icache.demand_mshr_misses::.cpu0.inst        63069                       # number of demand (read+write) MSHR misses
system.cpu0.icache.demand_mshr_misses::total        63069                       # number of demand (read+write) MSHR misses
system.cpu0.icache.overall_accesses::.cpu0.inst      1449310                       # number of overall (read+write) accesses
system.cpu0.icache.overall_accesses::total      1449310                       # number of overall (read+write) accesses
system.cpu0.icache.overall_avg_miss_latency::.cpu0.inst 28493.647081                       # average overall miss latency
system.cpu0.icache.overall_avg_miss_latency::total 28493.647081                       # average overall miss latency
system.cpu0.icache.overall_avg_mshr_miss_latency::.cpu0.inst 26316.066530                       # average overall mshr miss latency
system.cpu0.icache.overall_avg_mshr_miss_latency::total 26316.066530                       # average overall mshr miss latency
system.cpu0.icache.overall_hits::.cpu0.inst      1386032                       # number of overall hits
system.cpu0.icache.overall_hits::total        1386032                       # number of overall hits
system.cpu0.icache.overall_miss_latency::.cpu0.inst   1803021000                       # number of overall miss cycles
system.cpu0.icache.overall_miss_latency::total   1803021000                       # number of overall miss cycles
system.cpu0.icache.overall_miss_rate::.cpu0.inst     0.043661                       # miss rate for overall accesses
system.cpu0.icache.overall_miss_rate::total     0.043661                       # miss rate for overall accesses
system.cpu0.icache.overall_misses::.cpu0.inst        63278                       # number of overall misses
system.cpu0.icache.overall_misses::total        63278                       # number of overall misses
system.cpu0.icache.overall_mshr_hits::.cpu0.inst          209                       # number of overall MSHR hits
system.cpu0.icache.overall_mshr_hits::total          209                       # number of overall MSHR hits
system.cpu0.icache.overall_mshr_miss_latency::.cpu0.inst   1659728000                       # number of overall MSHR miss cycles
system.cpu0.icache.overall_mshr_miss_latency::total   1659728000                       # number of overall MSHR miss cycles
system.cpu0.icache.overall_mshr_miss_rate::.cpu0.inst     0.043517                       # mshr miss rate for overall accesses
system.cpu0.icache.overall_mshr_miss_rate::total     0.043517                       # mshr miss rate for overall accesses
system.cpu0.icache.overall_mshr_misses::.cpu0.inst        63069                       # number of overall MSHR misses
system.cpu0.icache.overall_mshr_misses::total        63069                       # number of overall MSHR misses
system.cpu0.icache.pwrStateResidencyTicks::UNDEFINED   9882099000                       # Cumulative time (in ticks) in various power states
system.cpu0.icache.replacements                 62812                       # number of replacements
system.cpu0.icache.tags.age_task_id_blocks_1024::0            8                       # Occupied blocks per task id
system.cpu0.icache.tags.age_task_id_blocks_1024::2            4                       # Occupied blocks per task id
system.cpu0.icache.tags.age_task_id_blocks_1024::3          244                       # Occupied blocks per task id
system.cpu0.icache.tags.avg_refs            22.976787                       # Average number of references to valid blocks.
system.cpu0.icache.tags.data_accesses         2961688                       # Number of data accesses
system.cpu0.icache.tags.occ_blocks::.cpu0.inst   255.412540                       # Average occupied blocks per requestor
system.cpu0.icache.tags.occ_percent::.cpu0.inst     0.997705                       # Average percentage of cache occupancy
system.cpu0.icache.tags.occ_percent::total     0.997705                       # Average percentage of cache occupancy
system.cpu0.icache.tags.occ_task_id_blocks::1024          256                       # Occupied blocks per task id
system.cpu0.icache.tags.occ_task_id_percent::1024            1                       # Percentage of cache occupancy per task id
system.cpu0.icache.tags.pwrStateResidencyTicks::UNDEFINED   9882099000                       # Cumulative time (in ticks) in various power states
system.cpu0.icache.tags.sampled_refs            63068                       # Sample count of references to valid blocks.
system.cpu0.icache.tags.tag_accesses          2961688                       # Number of tag accesses
system.cpu0.icache.tags.tagsinuse          255.412540                       # Cycle average of tags in use
system.cpu0.icache.tags.total_refs            1449100                       # Total number of references to valid blocks.
system.cpu0.icache.tags.warmup_cycle           107000                       # Cycle when the warmup percentage was hit.
system.cpu0.idleCycles                         124601                       # Total number of cycles that the CPU has spent unscheduled due to idling
system.cpu0.iew.branchMispredicts               66407                       # Number of branch mispredicts detected at execute
system.cpu0.iew.exec_branches                 2034182                       # Number of branches executed
system.cpu0.iew.exec_nop                            0                       # number of nop insts executed
system.cpu0.iew.exec_rate                    1.888607                       # Inst execution rate
system.cpu0.iew.exec_refs                     4056726                       # number of memory reference insts executed
system.cpu0.iew.exec_stores                   1570405                       # Number of stores executed
system.cpu0.iew.exec_swp                            0                       # number of swp insts executed
system.cpu0.iew.iewBlockCycles                 155178                       # Number of cycles IEW is blocking
system.cpu0.iew.iewDispLoadInsts              2535352                       # Number of dispatched load instructions
system.cpu0.iew.iewDispNonSpecInsts                79                       # Number of dispatched non-speculative instructions
system.cpu0.iew.iewDispSquashedInsts              106                       # Number of squashed instructions skipped by dispatch
system.cpu0.iew.iewDispStoreInsts             1612562                       # Number of dispatched store instructions
system.cpu0.iew.iewDispatchedInsts           19082895                       # Number of instructions dispatched to IQ
system.cpu0.iew.iewExecLoadInsts              2486321                       # Number of load instructions executed
system.cpu0.iew.iewExecSquashedInsts           107195                       # Number of squashed instructions skipped in execute
system.cpu0.iew.iewExecutedInsts             18663408                       # Number of executed instructions
system.cpu0.iew.iewIQFullEvents                   565                       # Number of times the IQ has become full, causing a stall
system.cpu0.iew.iewIdleCycles                       0                       # Number of cycles IEW is idle
system.cpu0.iew.iewLSQFullEvents                38438                       # Number of times the LSQ has become full, causing a stall
system.cpu0.iew.iewSquashCycles                 47840                       # Number of cycles IEW is squashing
system.cpu0.iew.iewUnblockCycles                39058                       # Number of cycles IEW is unblocking
system.cpu0.iew.lsq.thread0.blockedLoads            0                       # Number of blocked loads due to partial load-store forwarding
system.cpu0.iew.lsq.thread0.cacheBlocked           38                       # Number of times an access to memory failed due to the cache being blocked
system.cpu0.iew.lsq.thread0.forwLoads          596680                       # Number of loads that had data forwarded from stores
system.cpu0.iew.lsq.thread0.ignoredResponses         3087                       # Number of memory responses ignored because the instruction is squashed
system.cpu0.iew.lsq.thread0.invAddrLoads            0                       # Number of loads ignored due to an invalid address
system.cpu0.iew.lsq.thread0.invAddrSwpfs            0                       # Number of software prefetches ignored due to an invalid address
system.cpu0.iew.lsq.thread0.memOrderViolation          271                       # Number of memory ordering violations
system.cpu0.iew.lsq.thread0.rescheduledLoads            6                       # Number of loads that were rescheduled
system.cpu0.iew.lsq.thread0.squashedLoads       149104                       # Number of loads squashed
system.cpu0.iew.lsq.thread0.squashedStores        96893                       # Number of stores squashed
system.cpu0.iew.memOrderViolationEvents           271                       # Number of memory order violations
system.cpu0.iew.predictedNotTakenIncorrect        65622                       # Number of branches that were predicted not taken incorrectly
system.cpu0.iew.predictedTakenIncorrect           785                       # Number of branches that were predicted taken incorrectly
system.cpu0.iew.wb_consumers                 20770171                       # num instructions consuming a value
system.cpu0.iew.wb_count                     18613957                       # cumulative count of insts written-back
system.cpu0.iew.wb_fanout                    0.633605                       # average fanout of values written-back
system.cpu0.iew.wb_producers                 13160091                       # num instructions producing a value
system.cpu0.iew.wb_rate                      1.883603                       # insts written-back per cycle
system.cpu0.iew.wb_sent                      18634723                       # cumulative count of insts sent to commit
system.cpu0.int_regfile_reads                28439752                       # number of integer regfile reads
system.cpu0.int_regfile_writes               14779876                       # number of integer regfile writes
system.cpu0.interrupts.clk_domain.clock         16000                       # Clock period in ticks
system.cpu0.interrupts.pwrStateResidencyTicks::UNDEFINED   9882099000                       # Cumulative time (in ticks) in various power states
system.cpu0.ipc                              1.011931                       # IPC: Instructions Per Cycle
system.cpu0.ipc_total                        1.011931                       # IPC: Total IPC of All Threads
system.cpu0.iq.FU_type_0::No_OpClass            59509      0.32%      0.32% # Type of FU issued
system.cpu0.iq.FU_type_0::IntAlu             14426006     76.85%     77.17% # Type of FU issued
system.cpu0.iq.FU_type_0::IntMult               37455      0.20%     77.37% # Type of FU issued
system.cpu0.iq.FU_type_0::IntDiv                   23      0.00%     77.37% # Type of FU issued
system.cpu0.iq.FU_type_0::FloatAdd              22639      0.12%     77.49% # Type of FU issued
system.cpu0.iq.FU_type_0::FloatCmp                  0      0.00%     77.49% # Type of FU issued
system.cpu0.iq.FU_type_0::FloatCvt                  0      0.00%     77.49% # Type of FU issued
system.cpu0.iq.FU_type_0::FloatMult                 0      0.00%     77.49% # Type of FU issued
system.cpu0.iq.FU_type_0::FloatMultAcc              0      0.00%     77.49% # Type of FU issued
system.cpu0.iq.FU_type_0::FloatDiv                  0      0.00%     77.49% # Type of FU issued
system.cpu0.iq.FU_type_0::FloatMisc                 0      0.00%     77.49% # Type of FU issued
system.cpu0.iq.FU_type_0::FloatSqrt                 0      0.00%     77.49% # Type of FU issued
system.cpu0.iq.FU_type_0::SimdAdd                 378      0.00%     77.49% # Type of FU issued
system.cpu0.iq.FU_type_0::SimdAddAcc                0      0.00%     77.49% # Type of FU issued
system.cpu0.iq.FU_type_0::SimdAlu                 100      0.00%     77.49% # Type of FU issued
system.cpu0.iq.FU_type_0::SimdCmp                   0      0.00%     77.49% # Type of FU issued
system.cpu0.iq.FU_type_0::SimdCvt               27589      0.15%     77.64% # Type of FU issued
system.cpu0.iq.FU_type_0::SimdMisc             106613      0.57%     78.21% # Type of FU issued
system.cpu0.iq.FU_type_0::SimdMult                  0      0.00%     78.21% # Type of FU issued
system.cpu0.iq.FU_type_0::SimdMultAcc               0      0.00%     78.21% # Type of FU issued
system.cpu0.iq.FU_type_0::SimdShift               186      0.00%     78.21% # Type of FU issued
system.cpu0.iq.FU_type_0::SimdShiftAcc              0      0.00%     78.21% # Type of FU issued
system.cpu0.iq.FU_type_0::SimdDiv                   0      0.00%     78.21% # Type of FU issued
system.cpu0.iq.FU_type_0::SimdSqrt                  0      0.00%     78.21% # Type of FU issued
system.cpu0.iq.FU_type_0::SimdFloatAdd              0      0.00%     78.21% # Type of FU issued
system.cpu0.iq.FU_type_0::SimdFloatAlu              0      0.00%     78.21% # Type of FU issued
system.cpu0.iq.FU_type_0::SimdFloatCmp              0      0.00%     78.21% # Type of FU issued
system.cpu0.iq.FU_type_0::SimdFloatCvt              0      0.00%     78.21% # Type of FU issued
system.cpu0.iq.FU_type_0::SimdFloatDiv              0      0.00%     78.21% # Type of FU issued
system.cpu0.iq.FU_type_0::SimdFloatMisc             0      0.00%     78.21% # Type of FU issued
system.cpu0.iq.FU_type_0::SimdFloatMult             0      0.00%     78.21% # Type of FU issued
system.cpu0.iq.FU_type_0::SimdFloatMultAcc            0      0.00%     78.21% # Type of FU issued
system.cpu0.iq.FU_type_0::SimdFloatSqrt             0      0.00%     78.21% # Type of FU issued
system.cpu0.iq.FU_type_0::SimdReduceAdd             0      0.00%     78.21% # Type of FU issued
system.cpu0.iq.FU_type_0::SimdReduceAlu             0      0.00%     78.21% # Type of FU issued
system.cpu0.iq.FU_type_0::SimdReduceCmp             0      0.00%     78.21% # Type of FU issued
system.cpu0.iq.FU_type_0::SimdFloatReduceAdd            0      0.00%     78.21% # Type of FU issued
system.cpu0.iq.FU_type_0::SimdFloatReduceCmp            0      0.00%     78.21% # Type of FU issued
system.cpu0.iq.FU_type_0::SimdAes                   0      0.00%     78.21% # Type of FU issued
system.cpu0.iq.FU_type_0::SimdAesMix                0      0.00%     78.21% # Type of FU issued
system.cpu0.iq.FU_type_0::SimdSha1Hash              0      0.00%     78.21% # Type of FU issued
system.cpu0.iq.FU_type_0::SimdSha1Hash2             0      0.00%     78.21% # Type of FU issued
system.cpu0.iq.FU_type_0::SimdSha256Hash            0      0.00%     78.21% # Type of FU issued
system.cpu0.iq.FU_type_0::SimdSha256Hash2            0      0.00%     78.21% # Type of FU issued
system.cpu0.iq.FU_type_0::SimdShaSigma2             0      0.00%     78.21% # Type of FU issued
system.cpu0.iq.FU_type_0::SimdShaSigma3             0      0.00%     78.21% # Type of FU issued
system.cpu0.iq.FU_type_0::SimdPredAlu               0      0.00%     78.21% # Type of FU issued
system.cpu0.iq.FU_type_0::MemRead             2436002     12.98%     91.19% # Type of FU issued
system.cpu0.iq.FU_type_0::MemWrite            1555233      8.29%     99.47% # Type of FU issued
system.cpu0.iq.FU_type_0::FloatMemRead          64341      0.34%     99.82% # Type of FU issued
system.cpu0.iq.FU_type_0::FloatMemWrite         34532      0.18%    100.00% # Type of FU issued
system.cpu0.iq.FU_type_0::IprAccess                 0      0.00%    100.00% # Type of FU issued
system.cpu0.iq.FU_type_0::InstPrefetch              0      0.00%    100.00% # Type of FU issued
system.cpu0.iq.FU_type_0::total              18770606                       # Type of FU issued
system.cpu0.iq.fp_alu_accesses                 268738                       # Number of floating point alu accesses
system.cpu0.iq.fp_inst_queue_reads             536987                       # Number of floating instruction queue reads
system.cpu0.iq.fp_inst_queue_wakeup_accesses       265360                       # Number of floating instruction queue wakeup accesses
system.cpu0.iq.fp_inst_queue_writes            292272                       # Number of floating instruction queue writes
system.cpu0.iq.fu_busy_cnt                     257960                       # FU busy when requested
system.cpu0.iq.fu_busy_rate                  0.013743                       # FU busy rate (busy events/executed inst)
system.cpu0.iq.fu_full::No_OpClass                  0      0.00%      0.00% # attempts to use FU when none available
system.cpu0.iq.fu_full::IntAlu                 220118     85.33%     85.33% # attempts to use FU when none available
system.cpu0.iq.fu_full::IntMult                     0      0.00%     85.33% # attempts to use FU when none available
system.cpu0.iq.fu_full::IntDiv                      0      0.00%     85.33% # attempts to use FU when none available
system.cpu0.iq.fu_full::FloatAdd                    0      0.00%     85.33% # attempts to use FU when none available
system.cpu0.iq.fu_full::FloatCmp                    0      0.00%     85.33% # attempts to use FU when none available
system.cpu0.iq.fu_full::FloatCvt                    0      0.00%     85.33% # attempts to use FU when none available
system.cpu0.iq.fu_full::FloatMult                   0      0.00%     85.33% # attempts to use FU when none available
system.cpu0.iq.fu_full::FloatMultAcc                0      0.00%     85.33% # attempts to use FU when none available
system.cpu0.iq.fu_full::FloatDiv                    0      0.00%     85.33% # attempts to use FU when none available
system.cpu0.iq.fu_full::FloatMisc                   0      0.00%     85.33% # attempts to use FU when none available
system.cpu0.iq.fu_full::FloatSqrt                   0      0.00%     85.33% # attempts to use FU when none available
system.cpu0.iq.fu_full::SimdAdd                     1      0.00%     85.33% # attempts to use FU when none available
system.cpu0.iq.fu_full::SimdAddAcc                  0      0.00%     85.33% # attempts to use FU when none available
system.cpu0.iq.fu_full::SimdAlu                    12      0.00%     85.34% # attempts to use FU when none available
system.cpu0.iq.fu_full::SimdCmp                     0      0.00%     85.34% # attempts to use FU when none available
system.cpu0.iq.fu_full::SimdCvt                   471      0.18%     85.52% # attempts to use FU when none available
system.cpu0.iq.fu_full::SimdMisc                    7      0.00%     85.52% # attempts to use FU when none available
system.cpu0.iq.fu_full::SimdMult                    0      0.00%     85.52% # attempts to use FU when none available
system.cpu0.iq.fu_full::SimdMultAcc                 0      0.00%     85.52% # attempts to use FU when none available
system.cpu0.iq.fu_full::SimdShift                   0      0.00%     85.52% # attempts to use FU when none available
system.cpu0.iq.fu_full::SimdShiftAcc                0      0.00%     85.52% # attempts to use FU when none available
system.cpu0.iq.fu_full::SimdDiv                     0      0.00%     85.52% # attempts to use FU when none available
system.cpu0.iq.fu_full::SimdSqrt                    0      0.00%     85.52% # attempts to use FU when none available
system.cpu0.iq.fu_full::SimdFloatAdd                0      0.00%     85.52% # attempts to use FU when none available
system.cpu0.iq.fu_full::SimdFloatAlu                0      0.00%     85.52% # attempts to use FU when none available
system.cpu0.iq.fu_full::SimdFloatCmp                0      0.00%     85.52% # attempts to use FU when none available
system.cpu0.iq.fu_full::SimdFloatCvt                0      0.00%     85.52% # attempts to use FU when none available
system.cpu0.iq.fu_full::SimdFloatDiv                0      0.00%     85.52% # attempts to use FU when none available
system.cpu0.iq.fu_full::SimdFloatMisc               0      0.00%     85.52% # attempts to use FU when none available
system.cpu0.iq.fu_full::SimdFloatMult               0      0.00%     85.52% # attempts to use FU when none available
system.cpu0.iq.fu_full::SimdFloatMultAcc            0      0.00%     85.52% # attempts to use FU when none available
system.cpu0.iq.fu_full::SimdFloatSqrt               0      0.00%     85.52% # attempts to use FU when none available
system.cpu0.iq.fu_full::SimdReduceAdd               0      0.00%     85.52% # attempts to use FU when none available
system.cpu0.iq.fu_full::SimdReduceAlu               0      0.00%     85.52% # attempts to use FU when none available
system.cpu0.iq.fu_full::SimdReduceCmp               0      0.00%     85.52% # attempts to use FU when none available
system.cpu0.iq.fu_full::SimdFloatReduceAdd            0      0.00%     85.52% # attempts to use FU when none available
system.cpu0.iq.fu_full::SimdFloatReduceCmp            0      0.00%     85.52% # attempts to use FU when none available
system.cpu0.iq.fu_full::SimdAes                     0      0.00%     85.52% # attempts to use FU when none available
system.cpu0.iq.fu_full::SimdAesMix                  0      0.00%     85.52% # attempts to use FU when none available
system.cpu0.iq.fu_full::SimdSha1Hash                0      0.00%     85.52% # attempts to use FU when none available
system.cpu0.iq.fu_full::SimdSha1Hash2               0      0.00%     85.52% # attempts to use FU when none available
system.cpu0.iq.fu_full::SimdSha256Hash              0      0.00%     85.52% # attempts to use FU when none available
system.cpu0.iq.fu_full::SimdSha256Hash2             0      0.00%     85.52% # attempts to use FU when none available
system.cpu0.iq.fu_full::SimdShaSigma2               0      0.00%     85.52% # attempts to use FU when none available
system.cpu0.iq.fu_full::SimdShaSigma3               0      0.00%     85.52% # attempts to use FU when none available
system.cpu0.iq.fu_full::SimdPredAlu                 0      0.00%     85.52% # attempts to use FU when none available
system.cpu0.iq.fu_full::MemRead                 31468     12.20%     97.72% # attempts to use FU when none available
system.cpu0.iq.fu_full::MemWrite                 5845      2.27%     99.99% # attempts to use FU when none available
system.cpu0.iq.fu_full::FloatMemRead               14      0.01%     99.99% # attempts to use FU when none available
system.cpu0.iq.fu_full::FloatMemWrite              24      0.01%    100.00% # attempts to use FU when none available
system.cpu0.iq.fu_full::IprAccess                   0      0.00%    100.00% # attempts to use FU when none available
system.cpu0.iq.fu_full::InstPrefetch                0      0.00%    100.00% # attempts to use FU when none available
system.cpu0.iq.int_alu_accesses              18700319                       # Number of integer alu accesses
system.cpu0.iq.int_inst_queue_reads          47024977                       # Number of integer instruction queue reads
system.cpu0.iq.int_inst_queue_wakeup_accesses     18348597                       # Number of integer instruction queue wakeup accesses
system.cpu0.iq.int_inst_queue_writes         19930425                       # Number of integer instruction queue writes
system.cpu0.iq.iqInstsAdded                  19082728                       # Number of instructions added to the IQ (excludes non-spec)
system.cpu0.iq.iqInstsIssued                 18770606                       # Number of instructions issued
system.cpu0.iq.iqNonSpecInstsAdded                167                       # Number of non-speculative instructions added to the IQ
system.cpu0.iq.iqSquashedInstsExamined        1139531                       # Number of squashed instructions iterated over during squash; mainly for profiling
system.cpu0.iq.iqSquashedInstsIssued             5296                       # Number of squashed instructions issued
system.cpu0.iq.iqSquashedNonSpecRemoved           105                       # Number of squashed non-spec instructions that were removed
system.cpu0.iq.iqSquashedOperandsExamined      1355317                       # Number of squashed operands that are examined and possibly removed from graph
system.cpu0.iq.issued_per_cycle::samples      9757499                       # Number of insts issued each cycle
system.cpu0.iq.issued_per_cycle::mean        1.923711                       # Number of insts issued each cycle
system.cpu0.iq.issued_per_cycle::stdev       2.393281                       # Number of insts issued each cycle
system.cpu0.iq.issued_per_cycle::underflows            0      0.00%      0.00% # Number of insts issued each cycle
system.cpu0.iq.issued_per_cycle::0            4864929     49.86%     49.86% # Number of insts issued each cycle
system.cpu0.iq.issued_per_cycle::1             654722      6.71%     56.57% # Number of insts issued each cycle
system.cpu0.iq.issued_per_cycle::2             972526      9.97%     66.54% # Number of insts issued each cycle
system.cpu0.iq.issued_per_cycle::3             795692      8.15%     74.69% # Number of insts issued each cycle
system.cpu0.iq.issued_per_cycle::4             552681      5.66%     80.35% # Number of insts issued each cycle
system.cpu0.iq.issued_per_cycle::5             618383      6.34%     86.69% # Number of insts issued each cycle
system.cpu0.iq.issued_per_cycle::6             746284      7.65%     94.34% # Number of insts issued each cycle
system.cpu0.iq.issued_per_cycle::7             414843      4.25%     98.59% # Number of insts issued each cycle
system.cpu0.iq.issued_per_cycle::8             137439      1.41%    100.00% # Number of insts issued each cycle
system.cpu0.iq.issued_per_cycle::overflows            0      0.00%    100.00% # Number of insts issued each cycle
system.cpu0.iq.issued_per_cycle::min_value            0                       # Number of insts issued each cycle
system.cpu0.iq.issued_per_cycle::max_value            8                       # Number of insts issued each cycle
system.cpu0.iq.issued_per_cycle::total        9757499                       # Number of insts issued each cycle
system.cpu0.iq.rate                          1.899455                       # Inst issue rate
system.cpu0.iq.vec_alu_accesses                     0                       # Number of vector alu accesses
system.cpu0.iq.vec_inst_queue_reads                 0                       # Number of vector instruction queue reads
system.cpu0.iq.vec_inst_queue_wakeup_accesses            0                       # Number of vector instruction queue wakeup accesses
system.cpu0.iq.vec_inst_queue_writes                0                       # Number of vector instruction queue writes
system.cpu0.itb.rdAccesses                          0                       # TLB accesses on read requests
system.cpu0.itb.rdMisses                            0                       # TLB misses on read requests
system.cpu0.itb.walker.pwrStateResidencyTicks::UNDEFINED   9882099000                       # Cumulative time (in ticks) in various power states
system.cpu0.itb.wrAccesses                    1449411                       # TLB accesses on write requests
system.cpu0.itb.wrMisses                          243                       # TLB misses on write requests
system.cpu0.memDep0.conflictingLoads           176011                       # Number of conflicting loads.
system.cpu0.memDep0.conflictingStores           58311                       # Number of conflicting stores.
system.cpu0.memDep0.insertedLoads             2535352                       # Number of loads inserted to the mem dependence unit.
system.cpu0.memDep0.insertedStores            1612562                       # Number of stores inserted to the mem dependence unit.
system.cpu0.misc_regfile_reads                8131738                       # number of misc regfile reads
system.cpu0.numCycles                         9882100                       # number of cpu cycles simulated
system.cpu0.numWorkItemsCompleted                   0                       # number of work items this cpu completed
system.cpu0.numWorkItemsStarted                     0                       # number of work items this cpu started
system.cpu0.pwrStateResidencyTicks::ON     9882099000                       # Cumulative time (in ticks) in various power states
system.cpu0.rename.BlockCycles                 201688                       # Number of cycles rename is blocking
system.cpu0.rename.CommittedMaps             20394715                       # Number of HB maps that are committed
system.cpu0.rename.IQFullEvents                  4578                       # Number of times rename has blocked due to IQ full
system.cpu0.rename.IdleCycles                 2720550                       # Number of cycles rename is idle
system.cpu0.rename.LQFullEvents                999114                       # Number of times rename has blocked due to LQ full
system.cpu0.rename.ROBFullEvents                  173                       # Number of times rename has blocked due to ROB full
system.cpu0.rename.RenameLookups             49769173                       # Number of register rename lookups that rename has made
system.cpu0.rename.RenamedInsts              19466978                       # Number of instructions processed by rename
system.cpu0.rename.RenamedOperands           21873167                       # Number of destination operands rename has renamed
system.cpu0.rename.RunCycles                  2917692                       # Number of cycles rename is running
system.cpu0.rename.SQFullEvents               2848228                       # Number of times rename has blocked due to SQ full
system.cpu0.rename.SquashCycles                 47840                       # Number of cycles rename is squashing
system.cpu0.rename.UnblockCycles              3867762                       # Number of cycles rename is unblocking
system.cpu0.rename.UndoneMaps                 1478400                       # Number of HB maps that are undone due to squashing
system.cpu0.rename.fp_rename_lookups           331901                       # Number of floating rename lookups
system.cpu0.rename.int_rename_lookups        29722032                       # Number of integer rename lookups
system.cpu0.rename.serializeStallCycles          1967                       # count of cycles rename stalled for serializing inst
system.cpu0.rename.serializingInsts                42                       # count of serializing insts renamed
system.cpu0.rename.skidInsts                   912659                       # count of insts added to the skid buffer
system.cpu0.rename.tempSerializingInsts            40                       # count of temporary serializing insts renamed
system.cpu0.rob.rob_reads                    27666978                       # The number of ROB reads
system.cpu0.rob.rob_writes                   38336813                       # The number of ROB writes
system.cpu0.timesIdled                          10451                       # Number of times that the entire CPU went into an idle state and unscheduled itself
system.cpu0.workload.numSyscalls                   26                       # Number of system calls
system.cpu1.branchPred.BTBCorrect                   0                       # Number of correct BTB predictions (this stat may not work properly.
system.cpu1.branchPred.BTBHitPct             0.000000                       # BTB Hit Percentage
system.cpu1.branchPred.BTBHits                      0                       # Number of BTB hits
system.cpu1.branchPred.BTBLookups             2021957                       # Number of BTB lookups
system.cpu1.branchPred.RASInCorrect                 3                       # Number of incorrect RAS predictions.
system.cpu1.branchPred.condIncorrect            55306                       # Number of conditional branches incorrect
system.cpu1.branchPred.condPredicted          2085789                       # Number of conditional branches predicted
system.cpu1.branchPred.indirectHits            834709                       # Number of indirect target hits.
system.cpu1.branchPred.indirectLookups        2021957                       # Number of indirect predictor lookups.
system.cpu1.branchPred.indirectMisses         1187248                       # Number of indirect misses.
system.cpu1.branchPred.lookups                2310496                       # Number of BP lookups
system.cpu1.branchPred.usedRAS                 104805                       # Number of times the RAS was used to get a target.
system.cpu1.branchPredindirectMispredicted        52142                       # Number of mispredicted indirect branches.
system.cpu1.cc_regfile_reads                 10747052                       # number of cc regfile reads
system.cpu1.cc_regfile_writes                 6088484                       # number of cc regfile writes
system.cpu1.commit.amos                             0                       # Number of atomic instructions committed
system.cpu1.commit.branchMispredicts            55419                       # The number of times a branch was mispredicted
system.cpu1.commit.branches                   1986228                       # Number of branches committed
system.cpu1.commit.bw_lim_events              1000041                       # number cycles where commit BW limit reached
system.cpu1.commit.commitNonSpecStalls             62                       # The number of times commit has been forced to stall to communicate backwards
system.cpu1.commit.commitSquashedInsts        1361748                       # The number of squashed insts skipped by commit
system.cpu1.commit.committedInsts             9966833                       # Number of instructions committed
system.cpu1.commit.committedOps              17883724                       # Number of ops (including micro ops) committed
system.cpu1.commit.committed_per_cycle::samples      9554923                       # Number of insts commited each cycle
system.cpu1.commit.committed_per_cycle::mean     1.871676                       # Number of insts commited each cycle
system.cpu1.commit.committed_per_cycle::stdev     2.660189                       # Number of insts commited each cycle
system.cpu1.commit.committed_per_cycle::underflows            0      0.00%      0.00% # Number of insts commited each cycle
system.cpu1.commit.committed_per_cycle::0      5043093     52.78%     52.78% # Number of insts commited each cycle
system.cpu1.commit.committed_per_cycle::1       917448      9.60%     62.38% # Number of insts commited each cycle
system.cpu1.commit.committed_per_cycle::2       679344      7.11%     69.49% # Number of insts commited each cycle
system.cpu1.commit.committed_per_cycle::3      1002741     10.49%     79.99% # Number of insts commited each cycle
system.cpu1.commit.committed_per_cycle::4       420336      4.40%     84.39% # Number of insts commited each cycle
system.cpu1.commit.committed_per_cycle::5       216044      2.26%     86.65% # Number of insts commited each cycle
system.cpu1.commit.committed_per_cycle::6        93659      0.98%     87.63% # Number of insts commited each cycle
system.cpu1.commit.committed_per_cycle::7       182217      1.91%     89.53% # Number of insts commited each cycle
system.cpu1.commit.committed_per_cycle::8      1000041     10.47%    100.00% # Number of insts commited each cycle
system.cpu1.commit.committed_per_cycle::overflows            0      0.00%    100.00% # Number of insts commited each cycle
system.cpu1.commit.committed_per_cycle::min_value            0                       # Number of insts commited each cycle
system.cpu1.commit.committed_per_cycle::max_value            8                       # Number of insts commited each cycle
system.cpu1.commit.committed_per_cycle::total      9554923                       # Number of insts commited each cycle
system.cpu1.commit.fp_insts                    254477                       # Number of committed floating point instructions.
system.cpu1.commit.function_calls               96070                       # Number of function calls committed.
system.cpu1.commit.int_insts                 17722152                       # Number of committed integer instructions.
system.cpu1.commit.loads                      2378494                       # Number of loads committed
system.cpu1.commit.membars                         24                       # Number of memory barriers committed
system.cpu1.commit.op_class_0::No_OpClass        33924      0.19%      0.19% # Class of committed instruction
system.cpu1.commit.op_class_0::IntAlu        13773167     77.02%     77.20% # Class of committed instruction
system.cpu1.commit.op_class_0::IntMult          36901      0.21%     77.41% # Class of committed instruction
system.cpu1.commit.op_class_0::IntDiv              21      0.00%     77.41% # Class of committed instruction
system.cpu1.commit.op_class_0::FloatAdd         22560      0.13%     77.54% # Class of committed instruction
system.cpu1.commit.op_class_0::FloatCmp             0      0.00%     77.54% # Class of committed instruction
system.cpu1.commit.op_class_0::FloatCvt             0      0.00%     77.54% # Class of committed instruction
system.cpu1.commit.op_class_0::FloatMult            0      0.00%     77.54% # Class of committed instruction
system.cpu1.commit.op_class_0::FloatMultAcc            0      0.00%     77.54% # Class of committed instruction
system.cpu1.commit.op_class_0::FloatDiv             0      0.00%     77.54% # Class of committed instruction
system.cpu1.commit.op_class_0::FloatMisc            0      0.00%     77.54% # Class of committed instruction
system.cpu1.commit.op_class_0::FloatSqrt            0      0.00%     77.54% # Class of committed instruction
system.cpu1.commit.op_class_0::SimdAdd            374      0.00%     77.54% # Class of committed instruction
system.cpu1.commit.op_class_0::SimdAddAcc            0      0.00%     77.54% # Class of committed instruction
system.cpu1.commit.op_class_0::SimdAlu            100      0.00%     77.54% # Class of committed instruction
system.cpu1.commit.op_class_0::SimdCmp              0      0.00%     77.54% # Class of committed instruction
system.cpu1.commit.op_class_0::SimdCvt          24092      0.13%     77.67% # Class of committed instruction
system.cpu1.commit.op_class_0::SimdMisc        103144      0.58%     78.25% # Class of committed instruction
system.cpu1.commit.op_class_0::SimdMult             0      0.00%     78.25% # Class of committed instruction
system.cpu1.commit.op_class_0::SimdMultAcc            0      0.00%     78.25% # Class of committed instruction
system.cpu1.commit.op_class_0::SimdShift          186      0.00%     78.25% # Class of committed instruction
system.cpu1.commit.op_class_0::SimdShiftAcc            0      0.00%     78.25% # Class of committed instruction
system.cpu1.commit.op_class_0::SimdDiv              0      0.00%     78.25% # Class of committed instruction
system.cpu1.commit.op_class_0::SimdSqrt             0      0.00%     78.25% # Class of committed instruction
system.cpu1.commit.op_class_0::SimdFloatAdd            0      0.00%     78.25% # Class of committed instruction
system.cpu1.commit.op_class_0::SimdFloatAlu            0      0.00%     78.25% # Class of committed instruction
system.cpu1.commit.op_class_0::SimdFloatCmp            0      0.00%     78.25% # Class of committed instruction
system.cpu1.commit.op_class_0::SimdFloatCvt            0      0.00%     78.25% # Class of committed instruction
system.cpu1.commit.op_class_0::SimdFloatDiv            0      0.00%     78.25% # Class of committed instruction
system.cpu1.commit.op_class_0::SimdFloatMisc            0      0.00%     78.25% # Class of committed instruction
system.cpu1.commit.op_class_0::SimdFloatMult            0      0.00%     78.25% # Class of committed instruction
system.cpu1.commit.op_class_0::SimdFloatMultAcc            0      0.00%     78.25% # Class of committed instruction
system.cpu1.commit.op_class_0::SimdFloatSqrt            0      0.00%     78.25% # Class of committed instruction
system.cpu1.commit.op_class_0::SimdReduceAdd            0      0.00%     78.25% # Class of committed instruction
system.cpu1.commit.op_class_0::SimdReduceAlu            0      0.00%     78.25% # Class of committed instruction
system.cpu1.commit.op_class_0::SimdReduceCmp            0      0.00%     78.25% # Class of committed instruction
system.cpu1.commit.op_class_0::SimdFloatReduceAdd            0      0.00%     78.25% # Class of committed instruction
system.cpu1.commit.op_class_0::SimdFloatReduceCmp            0      0.00%     78.25% # Class of committed instruction
system.cpu1.commit.op_class_0::SimdAes              0      0.00%     78.25% # Class of committed instruction
system.cpu1.commit.op_class_0::SimdAesMix            0      0.00%     78.25% # Class of committed instruction
system.cpu1.commit.op_class_0::SimdSha1Hash            0      0.00%     78.25% # Class of committed instruction
system.cpu1.commit.op_class_0::SimdSha1Hash2            0      0.00%     78.25% # Class of committed instruction
system.cpu1.commit.op_class_0::SimdSha256Hash            0      0.00%     78.25% # Class of committed instruction
system.cpu1.commit.op_class_0::SimdSha256Hash2            0      0.00%     78.25% # Class of committed instruction
system.cpu1.commit.op_class_0::SimdShaSigma2            0      0.00%     78.25% # Class of committed instruction
system.cpu1.commit.op_class_0::SimdShaSigma3            0      0.00%     78.25% # Class of committed instruction
system.cpu1.commit.op_class_0::SimdPredAlu            0      0.00%     78.25% # Class of committed instruction
[...]
system.mem_ctrl.totGap                     9882066000                       # Total gap between requests
system.mem_ctrl.totMemAccLat              28049359123                       # Total ticks spent from burst creation until serviced by the DRAM
system.mem_ctrl.totQLat                   23281252873                       # Total ticks spent queuing
system.mem_ctrl.wrPerTurnAround::samples        14223                       # Writes before turning the bus around for reads
system.mem_ctrl.wrPerTurnAround::mean       16.052099                       # Writes before turning the bus around for reads
system.mem_ctrl.wrPerTurnAround::gmean      16.047855                       # Writes before turning the bus around for reads
system.mem_ctrl.wrPerTurnAround::stdev       0.393520                       # Writes before turning the bus around for reads
system.mem_ctrl.wrPerTurnAround::16             13936     97.98%     97.98% # Writes before turning the bus around for reads
system.mem_ctrl.wrPerTurnAround::17                26      0.18%     98.16% # Writes before turning the bus around for reads
system.mem_ctrl.wrPerTurnAround::18               140      0.98%     99.15% # Writes before turning the bus around for reads
system.mem_ctrl.wrPerTurnAround::19                73      0.51%     99.66% # Writes before turning the bus around for reads
system.mem_ctrl.wrPerTurnAround::20                31      0.22%     99.88% # Writes before turning the bus around for reads
system.mem_ctrl.wrPerTurnAround::21                10      0.07%     99.95% # Writes before turning the bus around for reads
system.mem_ctrl.wrPerTurnAround::22                 7      0.05%    100.00% # Writes before turning the bus around for reads
system.mem_ctrl.wrPerTurnAround::total          14223                       # Writes before turning the bus around for reads
system.mem_ctrl.wrQLenPdf::0                        1                       # What write queue length does an incoming req see
system.mem_ctrl.wrQLenPdf::1                        1                       # What write queue length does an incoming req see
system.mem_ctrl.wrQLenPdf::2                        1                       # What write queue length does an incoming req see
system.mem_ctrl.wrQLenPdf::3                        1                       # What write queue length does an incoming req see
system.mem_ctrl.wrQLenPdf::4                        1                       # What write queue length does an incoming req see
system.mem_ctrl.wrQLenPdf::5                        1                       # What write queue length does an incoming req see
system.mem_ctrl.wrQLenPdf::6                        1                       # What write queue length does an incoming req see
system.mem_ctrl.wrQLenPdf::7                        1                       # What write queue length does an incoming req see
system.mem_ctrl.wrQLenPdf::8                        1                       # What write queue length does an incoming req see
system.mem_ctrl.wrQLenPdf::9                        1                       # What write queue length does an incoming req see
system.mem_ctrl.wrQLenPdf::10                       1                       # What write queue length does an incoming req see
system.mem_ctrl.wrQLenPdf::11                       1                       # What write queue length does an incoming req see
system.mem_ctrl.wrQLenPdf::12                       1                       # What write queue length does an incoming req see
system.mem_ctrl.wrQLenPdf::13                       1                       # What write queue length does an incoming req see
system.mem_ctrl.wrQLenPdf::14                       1                       # What write queue length does an incoming req see
system.mem_ctrl.wrQLenPdf::15                     233                       # What write queue length does an incoming req see
system.mem_ctrl.wrQLenPdf::16                     268                       # What write queue length does an incoming req see
system.mem_ctrl.wrQLenPdf::17                     756                       # What write queue length does an incoming req see
system.mem_ctrl.wrQLenPdf::18                    1246                       # What write queue length does an incoming req see
system.mem_ctrl.wrQLenPdf::19                    1590                       # What write queue length does an incoming req see
system.mem_ctrl.wrQLenPdf::20                    1688                       # What write queue length does an incoming req see
system.mem_ctrl.wrQLenPdf::21                    1756                       # What write queue length does an incoming req see
system.mem_ctrl.wrQLenPdf::22                    1806                       # What write queue length does an incoming req see
system.mem_ctrl.wrQLenPdf::23                    1831                       # What write queue length does an incoming req see
system.mem_ctrl.wrQLenPdf::24                    1864                       # What write queue length does an incoming req see
system.mem_ctrl.wrQLenPdf::25                    1874                       # What write queue length does an incoming req see
system.mem_ctrl.wrQLenPdf::26                    1945                       # What write queue length does an incoming req see
system.mem_ctrl.wrQLenPdf::27                    2010                       # What write queue length does an incoming req see
system.mem_ctrl.wrQLenPdf::28                    2143                       # What write queue length does an incoming req see
system.mem_ctrl.wrQLenPdf::29                    2286                       # What write queue length does an incoming req see
system.mem_ctrl.wrQLenPdf::30                    2360                       # What write queue length does an incoming req see
system.mem_ctrl.wrQLenPdf::31                    2525                       # What write queue length does an incoming req see
system.mem_ctrl.wrQLenPdf::32                    2714                       # What write queue length does an incoming req see
system.mem_ctrl.wrQLenPdf::33                    1320                       # What write queue length does an incoming req see
system.mem_ctrl.wrQLenPdf::34                    1475                       # What write queue length does an incoming req see
system.mem_ctrl.wrQLenPdf::35                    1601                       # What write queue length does an incoming req see
system.mem_ctrl.wrQLenPdf::36                    1718                       # What write queue length does an incoming req see
system.mem_ctrl.wrQLenPdf::37                    1740                       # What write queue length does an incoming req see
system.mem_ctrl.wrQLenPdf::38                    1833                       # What write queue length does an incoming req see
system.mem_ctrl.wrQLenPdf::39                    2179                       # What write queue length does an incoming req see
system.mem_ctrl.wrQLenPdf::40                    4028                       # What write queue length does an incoming req see
system.mem_ctrl.wrQLenPdf::41                    6503                       # What write queue length does an incoming req see
system.mem_ctrl.wrQLenPdf::42                    8786                       # What write queue length does an incoming req see
system.mem_ctrl.wrQLenPdf::43                   10333                       # What write queue length does an incoming req see
system.mem_ctrl.wrQLenPdf::44                   11241                       # What write queue length does an incoming req see
system.mem_ctrl.wrQLenPdf::45                   11665                       # What write queue length does an incoming req see
system.mem_ctrl.wrQLenPdf::46                   12372                       # What write queue length does an incoming req see
system.mem_ctrl.wrQLenPdf::47                   14053                       # What write queue length does an incoming req see
system.mem_ctrl.wrQLenPdf::48                   14252                       # What write queue length does an incoming req see
system.mem_ctrl.wrQLenPdf::49                   13376                       # What write queue length does an incoming req see
system.mem_ctrl.wrQLenPdf::50                   12382                       # What write queue length does an incoming req see
system.mem_ctrl.wrQLenPdf::51                   11699                       # What write queue length does an incoming req see
system.mem_ctrl.wrQLenPdf::52                   11270                       # What write queue length does an incoming req see
system.mem_ctrl.wrQLenPdf::53                   11077                       # What write queue length does an incoming req see
system.mem_ctrl.wrQLenPdf::54                   11325                       # What write queue length does an incoming req see
system.mem_ctrl.wrQLenPdf::55                    9722                       # What write queue length does an incoming req see
system.mem_ctrl.wrQLenPdf::56                    5943                       # What write queue length does an incoming req see
system.mem_ctrl.wrQLenPdf::57                    2955                       # What write queue length does an incoming req see
system.mem_ctrl.wrQLenPdf::58                    1437                       # What write queue length does an incoming req see
system.mem_ctrl.wrQLenPdf::59                     676                       # What write queue length does an incoming req see
system.mem_ctrl.wrQLenPdf::60                     292                       # What write queue length does an incoming req see
system.mem_ctrl.wrQLenPdf::61                     123                       # What write queue length does an incoming req see
system.mem_ctrl.wrQLenPdf::62                      44                       # What write queue length does an incoming req see
system.mem_ctrl.wrQLenPdf::63                      29                       # What write queue length does an incoming req see
system.mem_ctrl.writeBursts                    228359                       # Number of DRAM write bursts, including those merged in the write queue
system.mem_ctrl.writePktSize::0                     0                       # Write request sizes (log2)
system.mem_ctrl.writePktSize::1                     0                       # Write request sizes (log2)
system.mem_ctrl.writePktSize::2                     0                       # Write request sizes (log2)
system.mem_ctrl.writePktSize::3                     0                       # Write request sizes (log2)
system.mem_ctrl.writePktSize::4                     0                       # Write request sizes (log2)
system.mem_ctrl.writePktSize::5                     0                       # Write request sizes (log2)
system.mem_ctrl.writePktSize::6                228359                       # Write request sizes (log2)
system.mem_ctrl.writeReqs                      228359                       # Number of write requests accepted
system.mem_ctrl.writeRowHitRate                 76.33                       # Row buffer hit rate for writes
system.mem_ctrl.writeRowHits                   174299                       # Number of row buffer hits during writes
system.mem_ctrl_0.actBackEnergy            4464970170                       # Energy for active background per rank (pJ)
system.mem_ctrl_0.actEnergy                 846404160                       # Energy for activate commands per rank (pJ)
system.mem_ctrl_0.actPowerDownEnergy                0                       # Energy for active power-down per rank (pJ)
system.mem_ctrl_0.averagePower             815.453597                       # Core power per rank (mW)
system.mem_ctrl_0.memoryStateTime::IDLE      39146752                       # Time in different power states
system.mem_ctrl_0.memoryStateTime::REF      329940000                       # Time in different power states
system.mem_ctrl_0.memoryStateTime::SREF             0                       # Time in different power states
system.mem_ctrl_0.memoryStateTime::PRE_PDN            0                       # Time in different power states
system.mem_ctrl_0.memoryStateTime::ACT     9513012248                       # Time in different power states
system.mem_ctrl_0.memoryStateTime::ACT_PDN            0                       # Time in different power states
system.mem_ctrl_0.preBackEnergy              34751520                       # Energy for precharge background per rank (pJ)
system.mem_ctrl_0.preEnergy                 449851710                       # Energy for precharge commands per rank (pJ)
system.mem_ctrl_0.prePowerDownEnergy                0                       # Energy for precharge power-down per rank (pJ)
system.mem_ctrl_0.readEnergy                886945080                       # Energy for read commands per rank (pJ)
system.mem_ctrl_0.refreshEnergy          779978160.000000                       # Energy for refresh commands per rank (pJ)
system.mem_ctrl_0.selfRefreshEnergy                 0                       # Energy for self refresh per rank (pJ)
system.mem_ctrl_0.totalEnergy              8058393180                       # Total energy per rank (pJ)
system.mem_ctrl_0.totalIdleTime                     0                       # Total Idle time Per DRAM Rank
system.mem_ctrl_0.writeEnergy               595492380                       # Energy for write commands per rank (pJ)
system.mem_ctrl_1.actBackEnergy            4460650710                       # Energy for active background per rank (pJ)
system.mem_ctrl_1.actEnergy                 885731280                       # Energy for activate commands per rank (pJ)
system.mem_ctrl_1.actPowerDownEnergy                0                       # Energy for active power-down per rank (pJ)
system.mem_ctrl_1.averagePower             825.790361                       # Core power per rank (mW)
system.mem_ctrl_1.memoryStateTime::IDLE      49007500                       # Time in different power states
system.mem_ctrl_1.memoryStateTime::REF      329940000                       # Time in different power states
system.mem_ctrl_1.memoryStateTime::SREF             0                       # Time in different power states
system.mem_ctrl_1.memoryStateTime::PRE_PDN            0                       # Time in different power states
system.mem_ctrl_1.memoryStateTime::ACT     9503151500                       # Time in different power states
system.mem_ctrl_1.memoryStateTime::ACT_PDN            0                       # Time in different power states
system.mem_ctrl_1.preBackEnergy              38388960                       # Energy for precharge background per rank (pJ)
system.mem_ctrl_1.preEnergy                 470769750                       # Energy for precharge commands per rank (pJ)
system.mem_ctrl_1.prePowerDownEnergy                0                       # Energy for precharge power-down per rank (pJ)
system.mem_ctrl_1.readEnergy                928742640                       # Energy for read commands per rank (pJ)
system.mem_ctrl_1.refreshEnergy          779978160.000000                       # Energy for refresh commands per rank (pJ)
system.mem_ctrl_1.selfRefreshEnergy                 0                       # Energy for self refresh per rank (pJ)
system.mem_ctrl_1.totalEnergy              8160542100                       # Total energy per rank (pJ)
system.mem_ctrl_1.totalIdleTime                     0                       # Total Idle time Per DRAM Rank
system.mem_ctrl_1.writeEnergy               596280600                       # Energy for write commands per rank (pJ)
system.membus.pkt_count_system.l2cache.mem_side::system.mem_ctrl.port       755139                       # Packet count per connected master and slave (bytes)
system.membus.pkt_count_system.l2cache.mem_side::total       755139                       # Packet count per connected master and slave (bytes)
system.membus.pkt_count::total                 755139                       # Packet count per connected master and slave (bytes)
system.membus.pkt_size_system.l2cache.mem_side::system.mem_ctrl.port     30890496                       # Cumulative packet size per connected master and slave (bytes)
system.membus.pkt_size_system.l2cache.mem_side::total     30890496                       # Cumulative packet size per connected master and slave (bytes)
system.membus.pkt_size::total                30890496                       # Cumulative packet size per connected master and slave (bytes)
system.membus.pwrStateResidencyTicks::UNDEFINED   9882099000                       # Cumulative time (in ticks) in various power states
system.membus.reqLayer8.occupancy          1465508966                       # Layer occupancy (ticks)
system.membus.reqLayer8.utilization              14.8                       # Layer utilization (%)
system.membus.respLayer0.occupancy         1357456896                       # Layer occupancy (ticks)
system.membus.respLayer0.utilization             13.7                       # Layer utilization (%)
system.membus.snoopTraffic                          0                       # Total snoop traffic (bytes)
system.membus.snoop_fanout::samples            254313                       # Request fanout histogram
system.membus.snoop_fanout::mean                    0                       # Request fanout histogram
system.membus.snoop_fanout::stdev                   0                       # Request fanout histogram
system.membus.snoop_fanout::underflows              0      0.00%      0.00% # Request fanout histogram
system.membus.snoop_fanout::0                  254313    100.00%    100.00% # Request fanout histogram
system.membus.snoop_fanout::1                       0      0.00%    100.00% # Request fanout histogram
system.membus.snoop_fanout::overflows               0      0.00%    100.00% # Request fanout histogram
system.membus.snoop_fanout::min_value               0                       # Request fanout histogram
system.membus.snoop_fanout::max_value               0                       # Request fanout histogram
system.membus.snoop_fanout::total              254313                       # Request fanout histogram
system.membus.snoop_filter.hit_multi_requests            0                       # Number of requests hitting in the snoop filter with multiple (>1) holders of the requested data.
system.membus.snoop_filter.hit_multi_snoops            0                       # Number of snoops hitting in the snoop filter with multiple (>1) holders of the requested data.
system.membus.snoop_filter.hit_single_requests       246542                       # Number of requests hitting in the snoop filter with a single holder of the requested data.
system.membus.snoop_filter.hit_single_snoops            0                       # Number of snoops hitting in the snoop filter with a single holder of the requested data.
system.membus.snoop_filter.tot_requests        500838                       # Total number of requests made to the snoop filter.
system.membus.snoop_filter.tot_snoops               0                       # Total number of snoops made to the snoop filter.
system.membus.snoops                                0                       # Total snoops (count)
system.membus.trans_dist::ReadResp             173987                       # Transaction distribution
system.membus.trans_dist::WritebackDirty       228359                       # Transaction distribution
system.membus.trans_dist::CleanEvict            18162                       # Transaction distribution
system.membus.trans_dist::UpgradeReq                3                       # Transaction distribution
system.membus.trans_dist::ReadExReq             80320                       # Transaction distribution
system.membus.trans_dist::ReadExResp            80318                       # Transaction distribution
system.membus.trans_dist::ReadSharedReq        173990                       # Transaction distribution

---------- End Simulation Statistics   ----------
