
---------- Begin Simulation Statistics ----------
final_tick                                 8741598000                       # Number of ticks from beginning of simulation (restored from checkpoints and never reset)
host_inst_rate                                  75773                       # Simulator instruction rate (inst/s)
host_mem_usage                                 752668                       # Number of bytes of host memory used
host_op_rate                                   135961                       # Simulator op (including micro ops) rate (op/s)
host_seconds                                   521.22                       # Real time elapsed on the host
host_tick_rate                               16771348                       # Simulator tick rate (ticks/s)
sim_freq                                 1000000000000                       # Frequency of simulated ticks
sim_insts                                    39494573                       # Number of instructions simulated
sim_ops                                      70865757                       # Number of ops (including micro ops) simulated
sim_seconds                                  0.008742                       # Number of seconds simulated
sim_ticks                                  8741598000                       # Number of ticks simulated
system.clk_domain.clock                          1000                       # Clock period in ticks
system.clk_domain.voltage_domain.voltage            1                       # Voltage in Volts
system.cpu0.branchPred.BTBCorrect                   0                       # Number of correct BTB predictions (this stat may not work properly.
system.cpu0.branchPred.BTBHitPct             0.000000                       # BTB Hit Percentage
system.cpu0.branchPred.BTBHits                      0                       # Number of BTB hits
system.cpu0.branchPred.BTBLookups             1978247                       # Number of BTB lookups
system.cpu0.branchPred.RASInCorrect                 3                       # Number of incorrect RAS predictions.
system.cpu0.branchPred.condIncorrect            47463                       # Number of conditional branches incorrect
system.cpu0.branchPred.condPredicted          2008299                       # Number of conditional branches predicted
system.cpu0.branchPred.indirectHits            818245                       # Number of indirect target hits.
system.cpu0.branchPred.indirectLookups        1978247                       # Number of indirect predictor lookups.
system.cpu0.branchPred.indirectMisses         1160002                       # Number of indirect misses.
system.cpu0.branchPred.lookups                2227567                       # Number of BP lookups
system.cpu0.branchPred.usedRAS                 103131                       # Number of times the RAS was used to get a target.
system.cpu0.branchPredindirectMispredicted        46187                       # Number of mispredicted indirect branches.
system.cpu0.cc_regfile_reads                 10480554                       # number of cc regfile reads
system.cpu0.cc_regfile_writes                 5949681                       # number of cc regfile writes
system.cpu0.commit.amos                             0                       # Number of atomic instructions committed
system.cpu0.commit.branchMispredicts            47552                       # The number of times a branch was mispredicted
system.cpu0.commit.branches                   1950782                       # Number of branches committed
system.cpu0.commit.bw_lim_events               983575                       # number cycles where commit BW limit reached
system.cpu0.commit.commitNonSpecStalls             62                       # The number of times commit has been forced to stall to communicate backwards
system.cpu0.commit.commitSquashedInsts        1136807                       # The number of squashed insts skipped by commit
system.cpu0.commit.committedInsts             9791460                       # Number of instructions committed
system.cpu0.commit.committedOps              17568877                       # Number of ops (including micro ops) committed
system.cpu0.commit.committed_per_cycle::samples      8487495                       # Number of insts commited each cycle
system.cpu0.commit.committed_per_cycle::mean     2.069972                       # Number of insts commited each cycle
system.cpu0.commit.committed_per_cycle::stdev     2.722869                       # Number of insts commited each cycle
system.cpu0.commit.committed_per_cycle::underflows            0      0.00%      0.00% # Number of insts commited each cycle
system.cpu0.commit.committed_per_cycle::0      4057520     47.81%     47.81% # Number of insts commited each cycle
system.cpu0.commit.committed_per_cycle::1       895458     10.55%     58.36% # Number of insts commited each cycle
system.cpu0.commit.committed_per_cycle::2       663112      7.81%     66.17% # Number of insts commited each cycle
system.cpu0.commit.committed_per_cycle::3       999260     11.77%     77.94% # Number of insts commited each cycle
system.cpu0.commit.committed_per_cycle::4       408278      4.81%     82.75% # Number of insts commited each cycle
system.cpu0.commit.committed_per_cycle::5       211558      2.49%     85.25% # Number of insts commited each cycle
system.cpu0.commit.committed_per_cycle::6        91225      1.07%     86.32% # Number of insts commited each cycle
system.cpu0.commit.committed_per_cycle::7       177509      2.09%     88.41% # Number of insts commited each cycle
system.cpu0.commit.committed_per_cycle::8       983575     11.59%    100.00% # Number of insts commited each cycle
system.cpu0.commit.committed_per_cycle::overflows            0      0.00%    100.00% # Number of insts commited each cycle
system.cpu0.commit.committed_per_cycle::min_value            0                       # Number of insts commited each cycle
system.cpu0.commit.committed_per_cycle::max_value            8                       # Number of insts commited each cycle
system.cpu0.commit.committed_per_cycle::total      8487495                       # Number of insts commited each cycle
system.cpu0.commit.fp_insts                    250225                       # Number of committed floating point instructions.
system.cpu0.commit.function_calls               94453                       # Number of function calls committed.
system.cpu0.commit.int_insts                 17410001                       # Number of committed integer instructions.
system.cpu0.commit.loads                      2337440                       # Number of loads committed
system.cpu0.commit.membars                         24                       # Number of memory barriers committed
system.cpu0.commit.op_class_0::No_OpClass        33354      0.19%      0.19% # Class of committed instruction
system.cpu0.commit.op_class_0::IntAlu        13529125     77.01%     77.20% # Class of committed instruction
system.cpu0.commit.op_class_0::IntMult          36137      0.21%     77.40% # Class of committed instruction
system.cpu0.commit.op_class_0::IntDiv              21      0.00%     77.40% # Class of committed instruction
system.cpu0.commit.op_class_0::FloatAdd         22180      0.13%     77.53% # Class of committed instruction
system.cpu0.commit.op_class_0::FloatCmp             0      0.00%     77.53% # Class of committed instruction
system.cpu0.commit.op_class_0::FloatCvt             0      0.00%     77.53% # Class of committed instruction
system.cpu0.commit.op_class_0::FloatMult            0      0.00%     77.53% # Class of committed instruction
system.cpu0.commit.op_class_0::FloatMultAcc            0      0.00%     77.53% # Class of committed instruction
system.cpu0.commit.op_class_0::FloatDiv             0      0.00%     77.53% # Class of committed instruction
system.cpu0.commit.op_class_0::FloatMisc            0      0.00%     77.53% # Class of committed instruction
system.cpu0.commit.op_class_0::FloatSqrt            0      0.00%     77.53% # Class of committed instruction
system.cpu0.commit.op_class_0::SimdAdd            374      0.00%     77.53% # Class of committed instruction
system.cpu0.commit.op_class_0::SimdAddAcc            0      0.00%     77.53% # Class of committed instruction
system.cpu0.commit.op_class_0::SimdAlu            100      0.00%     77.53% # Class of committed instruction
system.cpu0.commit.op_class_0::SimdCmp              0      0.00%     77.53% # Class of committed instruction
system.cpu0.commit.op_class_0::SimdCvt          23688      0.13%     77.67% # Class of committed instruction
system.cpu0.commit.op_class_0::SimdMisc        101410      0.58%     78.24% # Class of committed instruction
system.cpu0.commit.op_class_0::SimdMult             0      0.00%     78.24% # Class of committed instruction
system.cpu0.commit.op_class_0::SimdMultAcc            0      0.00%     78.24% # Class of committed instruction
system.cpu0.commit.op_class_0::SimdShift          186      0.00%     78.24% # Class of committed instruction
system.cpu0.commit.op_class_0::SimdShiftAcc            0      0.00%     78.24% # Class of committed instruction
system.cpu0.commit.op_class_0::SimdDiv              0      0.00%     78.24% # Class of committed instruction
system.cpu0.commit.op_class_0::SimdSqrt             0      0.00%     78.24% # Class of committed instruction
system.cpu0.commit.op_class_0::SimdFloatAdd            0      0.00%     78.24% # Class of committed instruction
system.cpu0.commit.op_class_0::SimdFloatAlu            0      0.00%     78.24% # Class of committed instruction
system.cpu0.commit.op_class_0::SimdFloatCmp            0      0.00%     78.24% # Class of committed instruction
system.cpu0.commit.op_class_0::SimdFloatCvt            0      0.00%     78.24% # Class of committed instruction
system.cpu0.commit.op_class_0::SimdFloatDiv            0      0.00%     78.24% # Class of committed instruction
system.cpu0.commit.op_class_0::SimdFloatMisc            0      0.00%     78.24% # Class of committed instruction
system.cpu0.commit.op_class_0::SimdFloatMult            0      0.00%     78.24% # Class of committed instruction
system.cpu0.commit.op_class_0::SimdFloatMultAcc            0      0.00%     78.24% # Class of committed instruction
system.cpu0.commit.op_class_0::SimdFloatSqrt            0      0.00%     78.24% # Class of committed instruction
system.cpu0.commit.op_class_0::SimdReduceAdd            0      0.00%     78.24% # Class of committed instruction
system.cpu0.commit.op_class_0::SimdReduceAlu            0      0.00%     78.24% # Class of committed instruction
system.cpu0.commit.op_class_0::SimdReduceCmp            0      0.00%     78.24% # Class of committed instruction
system.cpu0.commit.op_class_0::SimdFloatReduceAdd            0      0.00%     78.24% # Class of committed instruction
system.cpu0.commit.op_class_0::SimdFloatReduceCmp            0      0.00%     78.24% # Class of committed instruction
system.cpu0.commit.op_class_0::SimdAes              0      0.00%     78.24% # Class of committed instruction
system.cpu0.commit.op_class_0::SimdAesMix            0      0.00%     78.24% # Class of committed instruction
system.cpu0.commit.op_class_0::SimdSha1Hash            0      0.00%     78.24% # Class of committed instruction
system.cpu0.commit.op_class_0::SimdSha1Hash2            0      0.00%     78.24% # Class of committed instruction
system.cpu0.commit.op_class_0::SimdSha256Hash            0      0.00%     78.24% # Class of committed instruction
system.cpu0.commit.op_class_0::SimdSha256Hash2            0      0.00%     78.24% # Class of committed instruction
system.cpu0.commit.op_class_0::SimdShaSigma2            0      0.00%     78.24% # Class of committed instruction
system.cpu0.commit.op_class_0::SimdShaSigma3            0      0.00%     78.24% # Class of committed instruction
system.cpu0.commit.op_class_0::SimdPredAlu            0      0.00%     78.24% # Class of committed instruction
system.cpu0.commit.op_class_0::MemRead        2280530     12.98%     91.22% # Class of committed instruction
system.cpu0.commit.op_class_0::MemWrite       1451085      8.26%     99.48% # Class of committed instruction
system.cpu0.commit.op_class_0::FloatMemRead        56910      0.32%     99.81% # Class of committed instruction
system.cpu0.commit.op_class_0::FloatMemWrite        33777      0.19%    100.00% # Class of committed instruction
system.cpu0.commit.op_class_0::IprAccess            0      0.00%    100.00% # Class of committed instruction
system.cpu0.commit.op_class_0::InstPrefetch            0      0.00%    100.00% # Class of committed instruction
system.cpu0.commit.op_class_0::total         17568877                       # Class of committed instruction
system.cpu0.commit.refs                       3822302                       # Number of memory references committed
system.cpu0.commit.swp_count                        0                       # Number of s/w prefetches committed
system.cpu0.commit.vec_insts                        0                       # Number of committed Vector instructions.
system.cpu0.committedInsts                    9791460                       # Number of Instructions Simulated
system.cpu0.committedOps                     17568877                       # Number of Ops (including micro ops) Simulated
system.cpu0.cpi                              0.892778                       # CPI: Cycles Per Instruction
system.cpu0.cpi_total                        0.892778                       # CPI: Total CPI of All Threads
system.cpu0.dcache.ReadReq_accesses::.cpu0.data      1852268                       # number of ReadReq accesses(hits+misses)
system.cpu0.dcache.ReadReq_accesses::total      1852268                       # number of ReadReq accesses(hits+misses)
system.cpu0.dcache.ReadReq_avg_miss_latency::.cpu0.data 118900.406747                       # average ReadReq miss latency
system.cpu0.dcache.ReadReq_avg_miss_latency::total 118900.406747                       # average ReadReq miss latency
system.cpu0.dcache.ReadReq_avg_mshr_miss_latency::.cpu0.data 123234.974298                       # average ReadReq mshr miss latency
system.cpu0.dcache.ReadReq_avg_mshr_miss_latency::total 123234.974298                       # average ReadReq mshr miss latency
system.cpu0.dcache.ReadReq_hits::.cpu0.data      1835550                       # number of ReadReq hits
system.cpu0.dcache.ReadReq_hits::total        1835550                       # number of ReadReq hits
system.cpu0.dcache.ReadReq_miss_latency::.cpu0.data   1987777000                       # number of ReadReq miss cycles
system.cpu0.dcache.ReadReq_miss_latency::total   1987777000                       # number of ReadReq miss cycles
system.cpu0.dcache.ReadReq_miss_rate::.cpu0.data     0.009026                       # miss rate for ReadReq accesses
system.cpu0.dcache.ReadReq_miss_rate::total     0.009026                       # miss rate for ReadReq accesses
system.cpu0.dcache.ReadReq_misses::.cpu0.data        16718                       # number of ReadReq misses
system.cpu0.dcache.ReadReq_misses::total        16718                       # number of ReadReq misses
system.cpu0.dcache.ReadReq_mshr_hits::.cpu0.data         6602                       # number of ReadReq MSHR hits
system.cpu0.dcache.ReadReq_mshr_hits::total         6602                       # number of ReadReq MSHR hits
system.cpu0.dcache.ReadReq_mshr_miss_latency::.cpu0.data   1246645000                       # number of ReadReq MSHR miss cycles
system.cpu0.dcache.ReadReq_mshr_miss_latency::total   1246645000                       # number of ReadReq MSHR miss cycles
system.cpu0.dcache.ReadReq_mshr_miss_rate::.cpu0.data     0.005461                       # mshr miss rate for ReadReq accesses
system.cpu0.dcache.ReadReq_mshr_miss_rate::total     0.005461                       # mshr miss rate for ReadReq accesses
system.cpu0.dcache.ReadReq_mshr_misses::.cpu0.data        10116                       # number of ReadReq MSHR misses
system.cpu0.dcache.ReadReq_mshr_misses::total        10116                       # number of ReadReq MSHR misses
system.cpu0.dcache.WriteReq_accesses::.cpu0.data      1484865                       # number of WriteReq accesses(hits+misses)
system.cpu0.dcache.WriteReq_accesses::total      1484865                       # number of WriteReq accesses(hits+misses)
system.cpu0.dcache.WriteReq_avg_miss_latency::.cpu0.data 109477.962142                       # average WriteReq miss latency
system.cpu0.dcache.WriteReq_avg_miss_latency::total 109477.962142                       # average WriteReq miss latency
system.cpu0.dcache.WriteReq_avg_mshr_miss_latency::.cpu0.data 117961.557896                       # average WriteReq mshr miss latency
system.cpu0.dcache.WriteReq_avg_mshr_miss_latency::total 117961.557896                       # average WriteReq mshr miss latency
system.cpu0.dcache.WriteReq_hits::.cpu0.data      1455756                       # number of WriteReq hits
system.cpu0.dcache.WriteReq_hits::total       1455756                       # number of WriteReq hits
system.cpu0.dcache.WriteReq_miss_latency::.cpu0.data   3186794000                       # number of WriteReq miss cycles
system.cpu0.dcache.WriteReq_miss_latency::total   3186794000                       # number of WriteReq miss cycles
system.cpu0.dcache.WriteReq_miss_rate::.cpu0.data     0.019604                       # miss rate for WriteReq accesses
system.cpu0.dcache.WriteReq_miss_rate::total     0.019604                       # miss rate for WriteReq accesses
system.cpu0.dcache.WriteReq_misses::.cpu0.data        29109                       # number of WriteReq misses
system.cpu0.dcache.WriteReq_misses::total        29109                       # number of WriteReq misses
system.cpu0.dcache.WriteReq_mshr_hits::.cpu0.data         3382                       # number of WriteReq MSHR hits
system.cpu0.dcache.WriteReq_mshr_hits::total         3382                       # number of WriteReq MSHR hits
system.cpu0.dcache.WriteReq_mshr_miss_latency::.cpu0.data   3034797000                       # number of WriteReq MSHR miss cycles
system.cpu0.dcache.WriteReq_mshr_miss_latency::total   3034797000                       # number of WriteReq MSHR miss cycles
system.cpu0.dcache.WriteReq_mshr_miss_rate::.cpu0.data     0.017326                       # mshr miss rate for WriteReq accesses
system.cpu0.dcache.WriteReq_mshr_miss_rate::total     0.017326                       # mshr miss rate for WriteReq accesses
system.cpu0.dcache.WriteReq_mshr_misses::.cpu0.data        25727                       # number of WriteReq MSHR misses
system.cpu0.dcache.WriteReq_mshr_misses::total        25727                       # number of WriteReq MSHR misses
system.cpu0.dcache.avg_blocked_cycles::no_mshrs    50.090909                       # average number of cycles each access was blocked
system.cpu0.dcache.avg_blocked_cycles::no_targets          nan                       # average number of cycles each access was blocked
system.cpu0.dcache.blocked::no_mshrs               55                       # number of cycles access was blocked
system.cpu0.dcache.blocked::no_targets              0                       # number of cycles access was blocked
system.cpu0.dcache.blocked_cycles::no_mshrs         2755                       # number of cycles access was blocked
system.cpu0.dcache.blocked_cycles::no_targets            0                       # number of cycles access was blocked
system.cpu0.dcache.demand_accesses::.cpu0.data      3337133                       # number of demand (read+write) accesses
system.cpu0.dcache.demand_accesses::total      3337133                       # number of demand (read+write) accesses
system.cpu0.dcache.demand_avg_miss_latency::.cpu0.data 112915.333755                       # average overall miss latency
system.cpu0.dcache.demand_avg_miss_latency::total 112915.333755                       # average overall miss latency
system.cpu0.dcache.demand_avg_mshr_miss_latency::.cpu0.data 119449.878637                       # average overall mshr miss latency
system.cpu0.dcache.demand_avg_mshr_miss_latency::total 119449.878637                       # average overall mshr miss latency
system.cpu0.dcache.demand_hits::.cpu0.data      3291306                       # number of demand (read+write) hits
system.cpu0.dcache.demand_hits::total         3291306                       # number of demand (read+write) hits
system.cpu0.dcache.demand_miss_latency::.cpu0.data   5174571000                       # number of demand (read+write) miss cycles
system.cpu0.dcache.demand_miss_latency::total   5174571000                       # number of demand (read+write) miss cycles
system.cpu0.dcache.demand_miss_rate::.cpu0.data     0.013732                       # miss rate for demand accesses
system.cpu0.dcache.demand_miss_rate::total     0.013732                       # miss rate for demand accesses
system.cpu0.dcache.demand_misses::.cpu0.data        45827                       # number of demand (read+write) misses
system.cpu0.dcache.demand_misses::total         45827                       # number of demand (read+write) misses
system.cpu0.dcache.demand_mshr_hits::.cpu0.data         9984                       # number of demand (read+write) MSHR hits
system.cpu0.dcache.demand_mshr_hits::total         9984                       # number of demand (read+write) MSHR hits
system.cpu0.dcache.demand_mshr_miss_latency::.cpu0.data   4281442000                       # number of demand (read+write) MSHR miss cycles
system.cpu0.dcache.demand_mshr_miss_latency::total   4281442000                       # number of demand (read+write) MSHR miss cycles
system.cpu0.dcache.demand_mshr_miss_rate::.cpu0.data     0.010741                       # mshr miss rate for demand accesses
system.cpu0.dcache.demand_mshr_miss_rate::total     0.010741                       # mshr miss rate for demand accesses
system.cpu0.dcache.demand_mshr_misses::.cpu0.data        35843                       # number of demand (read+write) MSHR misses
system.cpu0.dcache.demand_mshr_misses::total        35843                       # number of demand (read+write) MSHR misses
system.cpu0.dcache.overall_accesses::.cpu0.data      3337133                       # number of overall (read+write) accesses
system.cpu0.dcache.overall_accesses::total      3337133                       # number of overall (read+write) accesses
system.cpu0.dcache.overall_avg_miss_latency::.cpu0.data 112915.333755                       # average overall miss latency
system.cpu0.dcache.overall_avg_miss_latency::total 112915.333755                       # average overall miss latency
system.cpu0.dcache.overall_avg_mshr_miss_latency::.cpu0.data 119449.878637                       # average overall mshr miss latency
system.cpu0.dcache.overall_avg_mshr_miss_latency::total 119449.878637                       # average overall mshr miss latency
system.cpu0.dcache.overall_hits::.cpu0.data      3291306                       # number of overall hits
system.cpu0.dcache.overall_hits::total        3291306                       # number of overall hits
system.cpu0.dcache.overall_miss_latency::.cpu0.data   5174571000                       # number of overall miss cycles
system.cpu0.dcache.overall_miss_latency::total   5174571000                       # number of overall miss cycles
system.cpu0.dcache.overall_miss_rate::.cpu0.data     0.013732                       # miss rate for overall accesses
system.cpu0.dcache.overall_miss_rate::total     0.013732                       # miss rate for overall accesses
system.cpu0.dcache.overall_misses::.cpu0.data        45827                       # number of overall misses
system.cpu0.dcache.overall_misses::total        45827                       # number of overall misses
system.cpu0.dcache.overall_mshr_hits::.cpu0.data         9984                       # number of overall MSHR hits
system.cpu0.dcache.overall_mshr_hits::total         9984                       # number of overall MSHR hits
system.cpu0.dcache.overall_mshr_miss_latency::.cpu0.data   4281442000                       # number of overall MSHR miss cycles
system.cpu0.dcache.overall_mshr_miss_latency::total   4281442000                       # number of overall MSHR miss cycles
system.cpu0.dcache.overall_mshr_miss_rate::.cpu0.data     0.010741                       # mshr miss rate for overall accesses
system.cpu0.dcache.overall_mshr_miss_rate::total     0.010741                       # mshr miss rate for overall accesses
system.cpu0.dcache.overall_mshr_misses::.cpu0.data        35843                       # number of overall MSHR misses
system.cpu0.dcache.overall_mshr_misses::total        35843                       # number of overall MSHR misses
system.cpu0.dcache.pwrStateResidencyTicks::UNDEFINED   8741598000                       # Cumulative time (in ticks) in various power states
system.cpu0.dcache.replacements                 34818                       # number of replacements
system.cpu0.dcache.tags.age_task_id_blocks_1024::0           39                       # Occupied blocks per task id
system.cpu0.dcache.tags.age_task_id_blocks_1024::1          346                       # Occupied blocks per task id
system.cpu0.dcache.tags.age_task_id_blocks_1024::2          596                       # Occupied blocks per task id
system.cpu0.dcache.tags.age_task_id_blocks_1024::3           43                       # Occupied blocks per task id
system.cpu0.dcache.tags.avg_refs            92.828330                       # Average number of references to valid blocks.
system.cpu0.dcache.tags.data_accesses         6710108                       # Number of data accesses
system.cpu0.dcache.tags.occ_blocks::.cpu0.data  1003.934705                       # Average occupied blocks per requestor
system.cpu0.dcache.tags.occ_percent::.cpu0.data     0.980405                       # Average percentage of cache occupancy
system.cpu0.dcache.tags.occ_percent::total     0.980405                       # Average percentage of cache occupancy
system.cpu0.dcache.tags.occ_task_id_blocks::1024         1024                       # Occupied blocks per task id
system.cpu0.dcache.tags.occ_task_id_percent::1024            1                       # Percentage of cache occupancy per task id
system.cpu0.dcache.tags.pwrStateResidencyTicks::UNDEFINED   8741598000                       # Cumulative time (in ticks) in various power states
system.cpu0.dcache.tags.sampled_refs            35842                       # Sample count of references to valid blocks.
system.cpu0.dcache.tags.tag_accesses          6710108                       # Number of tag accesses
system.cpu0.dcache.tags.tagsinuse         1003.934705                       # Cycle average of tags in use
system.cpu0.dcache.tags.total_refs            3327153                       # Total number of references to valid blocks.
system.cpu0.dcache.tags.warmup_cycle           222000                       # Cycle when the warmup percentage was hit.
system.cpu0.dcache.writebacks::.writebacks        33855                       # number of writebacks
system.cpu0.dcache.writebacks::total            33855                       # number of writebacks
system.cpu0.decode.BlockedCycles              3061212                       # Number of cycles decode is blocked
system.cpu0.decode.DecodedInsts              19381590                       # Number of instructions handled by decode
system.cpu0.decode.IdleCycles                 2590975                       # Number of cycles decode is idle
system.cpu0.decode.RunCycles                  2769948                       # Number of cycles decode is running
system.cpu0.decode.SquashCycles                 47795                       # Number of cycles decode is squashing
system.cpu0.decode.UnblockCycles               185628                       # Number of cycles decode is unblocking
system.cpu0.dtb.rdAccesses                    2438048                       # TLB accesses on read requests
system.cpu0.dtb.rdMisses                          916                       # TLB misses on read requests
system.cpu0.dtb.walker.pwrStateResidencyTicks::UNDEFINED   8741598000                       # Cumulative time (in ticks) in various power states
system.cpu0.dtb.wrAccesses                    1539030                       # TLB accesses on write requests
system.cpu0.dtb.wrMisses                          595                       # TLB misses on write requests
system.cpu0.fetch.Branches                    2227567                       # Number of branches that fetch encountered
system.cpu0.fetch.CacheLines                  1421894                       # Number of cache lines fetched
system.cpu0.fetch.Cycles                      5736933                       # Number of cycles fetch has run and was not squashing or blocked
system.cpu0.fetch.IcacheSquashes                 7316                       # Number of outstanding Icache misses that were squashed
system.cpu0.fetch.Insts                      11111175                       # Number of instructions fetch has processed
system.cpu0.fetch.MiscStallCycles                 101                       # Number of cycles fetch has spent waiting on interrupts, or bad addresses, or out of MSHRs
system.cpu0.fetch.PendingQuiesceStallCycles            7                       # Number of stall cycles due to pending quiesce instructions
system.cpu0.fetch.PendingTrapStallCycles          582                       # Number of stall cycles due to pending traps
system.cpu0.fetch.SquashCycles                  95590                       # Number of cycles fetch has spent squashing
system.cpu0.fetch.branchRate                 0.254824                       # Number of branch fetches per cycle
system.cpu0.fetch.icacheStallCycles           2870140                       # Number of cycles fetch is stalled on an Icache miss
system.cpu0.fetch.predictedBranches            921376                       # Number of branches that fetch has predicted taken
system.cpu0.fetch.rate                       1.271069                       # Number of inst fetches per cycle
system.cpu0.fetch.rateDist::samples           8655558                       # Number of instructions fetched each cycle (Total)
system.cpu0.fetch.rateDist::mean             2.307817                       # Number of instructions fetched each cycle (Total)
system.cpu0.fetch.rateDist::stdev            3.342227                       # Number of instructions fetched each cycle (Total)
system.cpu0.fetch.rateDist::underflows              0      0.00%      0.00% # Number of instructions fetched each cycle (Total)
system.cpu0.fetch.rateDist::0                 5516877     63.74%     63.74% # Number of instructions fetched each cycle (Total)
system.cpu0.fetch.rateDist::1                  123463      1.43%     65.16% # Number of instructions fetched each cycle (Total)
system.cpu0.fetch.rateDist::2                  184411      2.13%     67.29% # Number of instructions fetched each cycle (Total)
system.cpu0.fetch.rateDist::3                  223396      2.58%     69.88% # Number of instructions fetched each cycle (Total)
system.cpu0.fetch.rateDist::4                  173221      2.00%     71.88% # Number of instructions fetched each cycle (Total)
system.cpu0.fetch.rateDist::5                  199813      2.31%     74.19% # Number of instructions fetched each cycle (Total)
system.cpu0.fetch.rateDist::6                  228855      2.64%     76.83% # Number of instructions fetched each cycle (Total)
system.cpu0.fetch.rateDist::7                  296287      3.42%     80.25% # Number of instructions fetched each cycle (Total)
system.cpu0.fetch.rateDist::8                 1709235     19.75%    100.00% # Number of instructions fetched each cycle (Total)
system.cpu0.fetch.rateDist::overflows               0      0.00%    100.00% # Number of instructions fetched each cycle (Total)
system.cpu0.fetch.rateDist::min_value               0                       # Number of instructions fetched each cycle (Total)
system.cpu0.fetch.rateDist::max_value               8                       # Number of instructions fetched each cycle (Total)
system.cpu0.fetch.rateDist::total             8655558                       # Number of instructions fetched each cycle (Total)
system.cpu0.fp_regfile_reads                   311092                       # number of floating regfile reads
system.cpu0.fp_regfile_writes                  200293                       # number of floating regfile writes
system.cpu0.icache.ReadReq_accesses::.cpu0.inst      1421894                       # number of ReadReq accesses(hits+misses)
system.cpu0.icache.ReadReq_accesses::total      1421894                       # number of ReadReq accesses(hits+misses)
system.cpu0.icache.ReadReq_avg_miss_latency::.cpu0.inst 27566.877598                       # average ReadReq miss latency
system.cpu0.icache.ReadReq_avg_miss_latency::total 27566.877598                       # average ReadReq miss latency
system.cpu0.icache.ReadReq_avg_mshr_miss_latency::.cpu0.inst 25363.799060                       # average ReadReq mshr miss latency
system.cpu0.icache.ReadReq_avg_mshr_miss_latency::total 25363.799060                       # average ReadReq mshr miss latency
system.cpu0.icache.ReadReq_hits::.cpu0.inst      1357418                       # number of ReadReq hits
system.cpu0.icache.ReadReq_hits::total        1357418                       # number of ReadReq hits
system.cpu0.icache.ReadReq_miss_latency::.cpu0.inst   1777402000                       # number of ReadReq miss cycles
system.cpu0.icache.ReadReq_miss_latency::total   1777402000                       # number of ReadReq miss cycles
system.cpu0.icache.ReadReq_miss_rate::.cpu0.inst     0.045345                       # miss rate for ReadReq accesses
system.cpu0.icache.ReadReq_miss_rate::total     0.045345                       # miss rate for ReadReq accesses
system.cpu0.icache.ReadReq_misses::.cpu0.inst        64476                       # number of ReadReq misses
system.cpu0.icache.ReadReq_misses::total        64476                       # number of ReadReq misses
system.cpu0.icache.ReadReq_mshr_hits::.cpu0.inst          218                       # number of ReadReq MSHR hits
system.cpu0.icache.ReadReq_mshr_hits::total          218                       # number of ReadReq MSHR hits
system.cpu0.icache.ReadReq_mshr_miss_latency::.cpu0.inst   1629827000                       # number of ReadReq MSHR miss cycles
system.cpu0.icache.ReadReq_mshr_miss_latency::total   1629827000                       # number of ReadReq MSHR miss cycles
system.cpu0.icache.ReadReq_mshr_miss_rate::.cpu0.inst     0.045192                       # mshr miss rate for ReadReq accesses
system.cpu0.icache.ReadReq_mshr_miss_rate::total     0.045192                       # mshr miss rate for ReadReq accesses
system.cpu0.icache.ReadReq_mshr_misses::.cpu0.inst        64258                       # number of ReadReq MSHR misses
system.cpu0.icache.ReadReq_mshr_misses::total        64258                       # number of ReadReq MSHR misses
system.cpu0.icache.avg_blocked_cycles::no_mshrs    19.333333                       # average number of cycles each access was blocked
system.cpu0.icache.avg_blocked_cycles::no_targets          nan                       # average number of cycles each access was blocked
system.cpu0.icache.blocked::no_mshrs                3                       # number of cycles access was blocked
system.cpu0.icache.blocked::no_targets              0                       # number of cycles access was blocked
system.cpu0.icache.blocked_cycles::no_mshrs           58                       # number of cycles access was blocked
system.cpu0.icache.blocked_cycles::no_targets            0                       # number of cycles access was blocked
system.cpu0.icache.demand_accesses::.cpu0.inst      1421894                       # number of demand (read+write) accesses
system.cpu0.icache.demand_accesses::total      1421894                       # number of demand (read+write) accesses
system.cpu0.icache.demand_avg_miss_latency::.cpu0.inst 27566.877598                       # average overall miss latency
system.cpu0.icache.demand_avg_miss_latency::total 27566.877598                       # average overall miss latency
system.cpu0.icache.demand_avg_mshr_miss_latency::.cpu0.inst 25363.799060                       # average overall mshr miss latency
system.cpu0.icache.demand_avg_mshr_miss_latency::total 25363.799060                       # average overall mshr miss latency
system.cpu0.icache.demand_hits::.cpu0.inst      1357418                       # number of demand (read+write) hits
system.cpu0.icache.demand_hits::total         1357418                       # number of demand (read+write) hits
system.cpu0.icache.demand_miss_latency::.cpu0.inst   1777402000                       # number of demand (read+write) miss cycles
system.cpu0.icache.demand_miss_latency::total   1777402000                       # number of demand (read+write) miss cycles
system.cpu0.icache.demand_miss_rate::.cpu0.inst     0.045345                       # miss rate for demand accesses
system.cpu0.icache.demand_miss_rate::total     0.045345                       # miss rate for demand accesses
system.cpu0.icache.demand_misses::.cpu0.inst        64476                       # number of demand (read+write) misses
system.cpu0.icache.demand_misses::total         64476                       # number of demand (read+write) misses
system.cpu0.icache.demand_mshr_hits::.cpu0.inst          218                       # number of demand (read+write) MSHR hits
system.cpu0.icache.demand_mshr_hits::total          218                       # number of demand (read+write) MSHR hits
system.cpu0.icache.demand_mshr_miss_latency::.cpu0.inst   1629827000                       # number of demand (read+write) MSHR miss cycles
system.cpu0.icache.demand_mshr_miss_latency::total   1629827000                       # number of demand (read+write) MSHR miss cycles
system.cpu0.icache.demand_mshr_miss_rate::.cpu0.inst     0.045192                       # mshr miss rate for demand accesses
system.cpu0.icache.demand_mshr_miss_rate::total     0.045192                       # mshr miss rate for demand accesses
system.cpu0.icache.demand_mshr_misses::.cpu0.inst        64258                       # number of demand (read+write) MSHR misses
system.cpu0.icache.demand_mshr_misses::total        64258                       # number of demand (read+write) MSHR misses
system.cpu0.icache.overall_accesses::.cpu0.inst      1421894                       # number of overall (read+write) accesses
system.cpu0.icache.overall_accesses::total      1421894                       # number of overall (read+write) accesses
system.cpu0.icache.overall_avg_miss_latency::.cpu0.inst 27566.877598                       # average overall miss latency
system.cpu0.icache.overall_avg_miss_latency::total 27566.877598                       # average overall miss latency
system.cpu0.icache.overall_avg_mshr_miss_latency::.cpu0.inst 25363.799060                       # average overall mshr miss latency
system.cpu0.icache.overall_avg_mshr_miss_latency::total 25363.799060                       # average overall mshr miss latency
system.cpu0.icache.overall_hits::.cpu0.inst      1357418                       # number of overall hits
system.cpu0.icache.overall_hits::total        1357418                       # number of overall hits
system.cpu0.icache.overall_miss_latency::.cpu0.inst   1777402000                       # number of overall miss cycles
system.cpu0.icache.overall_miss_latency::total   1777402000                       # number of overall miss cycles
system.cpu0.icache.overall_miss_rate::.cpu0.inst     0.045345                       # miss rate for overall accesses
system.cpu0.icache.overall_miss_rate::total     0.045345                       # miss rate for overall accesses
system.cpu0.icache.overall_misses::.cpu0.inst        64476                       # number of overall misses
system.cpu0.icache.overall_misses::total        64476                       # number of overall misses
system.cpu0.icache.overall_mshr_hits::.cpu0.inst          218                       # number of overall MSHR hits
system.cpu0.icache.overall_mshr_hits::total          218                       # number of overall MSHR hits
system.cpu0.icache.overall_mshr_miss_latency::.cpu0.inst   1629827000                       # number of overall MSHR miss cycles
system.cpu0.icache.overall_mshr_miss_latency::total   1629827000                       # number of overall MSHR miss cycles
system.cpu0.icache.overall_mshr_miss_rate::.cpu0.inst     0.045192                       # mshr miss rate for overall accesses
system.cpu0.icache.overall_mshr_miss_rate::total     0.045192                       # mshr miss rate for overall accesses
system.cpu0.icache.overall_mshr_misses::.cpu0.inst        64258                       # number of overall MSHR misses
system.cpu0.icache.overall_mshr_misses::total        64258                       # number of overall MSHR misses
system.cpu0.icache.pwrStateResidencyTicks::UNDEFINED   8741598000                       # Cumulative time (in ticks) in various power states
system.cpu0.icache.replacements                 64002                       # number of replacements
system.cpu0.icache.tags.age_task_id_blocks_1024::0            8                       # Occupied blocks per task id
system.cpu0.icache.tags.age_task_id_blocks_1024::1            1                       # Occupied blocks per task id
system.cpu0.icache.tags.age_task_id_blocks_1024::2           12                       # Occupied blocks per task id
system.cpu0.icache.tags.age_task_id_blocks_1024::3          234                       # Occupied blocks per task id
system.cpu0.icache.tags.avg_refs            22.124498                       # Average number of references to valid blocks.
system.cpu0.icache.tags.data_accesses         2908046                       # Number of data accesses
system.cpu0.icache.tags.occ_blocks::.cpu0.inst   254.512758                       # Average occupied blocks per requestor
system.cpu0.icache.tags.occ_percent::.cpu0.inst     0.994190                       # Average percentage of cache occupancy
system.cpu0.icache.tags.occ_percent::total     0.994190                       # Average percentage of cache occupancy
system.cpu0.icache.tags.occ_task_id_blocks::1024          255                       # Occupied blocks per task id
system.cpu0.icache.tags.occ_task_id_percent::1024     0.996094                       # Percentage of cache occupancy per task id
system.cpu0.icache.tags.pwrStateResidencyTicks::UNDEFINED   8741598000                       # Cumulative time (in ticks) in various power states
system.cpu0.icache.tags.sampled_refs            64258                       # Sample count of references to valid blocks.
system.cpu0.icache.tags.tag_accesses          2908046                       # Number of tag accesses
system.cpu0.icache.tags.tagsinuse          254.512758                       # Cycle average of tags in use
system.cpu0.icache.tags.total_refs            1421676                       # Total number of references to valid blocks.
system.cpu0.icache.tags.warmup_cycle           107000                       # Cycle when the warmup percentage was hit.
system.cpu0.idleCycles                          86041                       # Total number of cycles that the CPU has spent unscheduled due to idling
system.cpu0.iew.branchMispredicts               66125                       # Number of branch mispredicts detected at execute
system.cpu0.iew.exec_branches                 1992566                       # Number of branches executed
system.cpu0.iew.exec_nop                            0                       # number of nop insts executed
system.cpu0.iew.exec_rate                    2.092116                       # Inst execution rate
system.cpu0.iew.exec_refs                     3975862                       # number of memory reference insts executed
system.cpu0.iew.exec_stores                   1539025                       # Number of stores executed
system.cpu0.iew.exec_swp                            0                       # number of swp insts executed
system.cpu0.iew.iewBlockCycles                 144856                       # Number of cycles IEW is blocking
system.cpu0.iew.iewDispLoadInsts              2487031                       # Number of dispatched load instructions
system.cpu0.iew.iewDispNonSpecInsts                81                       # Number of dispatched non-speculative instructions
system.cpu0.iew.iewDispSquashedInsts              178                       # Number of squashed instructions skipped by dispatch
system.cpu0.iew.iewDispStoreInsts             1580860                       # Number of dispatched store instructions
system.cpu0.iew.iewDispatchedInsts           18705714                       # Number of instructions dispatched to IQ
system.cpu0.iew.iewExecLoadInsts              2436837                       # Number of load instructions executed
system.cpu0.iew.iewExecSquashedInsts           106506                       # Number of squashed instructions skipped in execute
system.cpu0.iew.iewExecutedInsts             18288443                       # Number of executed instructions
system.cpu0.iew.iewIQFullEvents                   546                       # Number of times the IQ has become full, causing a stall
system.cpu0.iew.iewIdleCycles                       0                       # Number of cycles IEW is idle
system.cpu0.iew.iewLSQFullEvents                32877                       # Number of times the LSQ has become full, causing a stall
system.cpu0.iew.iewSquashCycles                 47795                       # Number of cycles IEW is squashing
system.cpu0.iew.iewUnblockCycles                33472                       # Number of cycles IEW is unblocking
system.cpu0.iew.lsq.thread0.blockedLoads            0                       # Number of blocked loads due to partial load-store forwarding
system.cpu0.iew.lsq.thread0.cacheBlocked           48                       # Number of times an access to memory failed due to the cache being blocked
system.cpu0.iew.lsq.thread0.forwLoads          584862                       # Number of loads that had data forwarded from stores
system.cpu0.iew.lsq.thread0.ignoredResponses         3153                       # Number of memory responses ignored because the instruction is squashed
system.cpu0.iew.lsq.thread0.invAddrLoads            0                       # Number of loads ignored due to an invalid address
system.cpu0.iew.lsq.thread0.invAddrSwpfs            0                       # Number of software prefetches ignored due to an invalid address
system.cpu0.iew.lsq.thread0.memOrderViolation          262                       # Number of memory ordering violations
system.cpu0.iew.lsq.thread0.rescheduledLoads            4                       # Number of loads that were rescheduled
system.cpu0.iew.lsq.thread0.squashedLoads       149587                       # Number of loads squashed
system.cpu0.iew.lsq.thread0.squashedStores        95994                       # Number of stores squashed
system.cpu0.iew.memOrderViolationEvents           262                       # Number of memory order violations
system.cpu0.iew.predictedNotTakenIncorrect        65281                       # Number of branches that were predicted not taken incorrectly
system.cpu0.iew.predictedTakenIncorrect           844                       # Number of branches that were predicted taken incorrectly
system.cpu0.iew.wb_consumers                 20360697                       # num instructions consuming a value
system.cpu0.iew.wb_count                     18239678                       # cumulative count of insts written-back
system.cpu0.iew.wb_fanout                    0.633486                       # average fanout of values written-back
system.cpu0.iew.wb_producers                 12898211                       # num instructions producing a value
system.cpu0.iew.wb_rate                      2.086538                       # insts written-back per cycle
system.cpu0.iew.wb_sent                      18261122                       # cumulative count of insts sent to commit
system.cpu0.int_regfile_reads                27866919                       # number of integer regfile reads
system.cpu0.int_regfile_writes               14484876                       # number of integer regfile writes
system.cpu0.interrupts.clk_domain.clock         16000                       # Clock period in ticks
system.cpu0.interrupts.pwrStateResidencyTicks::UNDEFINED   8741598000                       # Cumulative time (in ticks) in various power states
system.cpu0.ipc                              1.120099                       # IPC: Instructions Per Cycle
system.cpu0.ipc_total                        1.120099                       # IPC: Total IPC of All Threads
system.cpu0.iq.FU_type_0::No_OpClass            58485      0.32%      0.32% # Type of FU issued
system.cpu0.iq.FU_type_0::IntAlu             14135372     76.84%     77.16% # Type of FU issued
system.cpu0.iq.FU_type_0::IntMult               36593      0.20%     77.36% # Type of FU issued
system.cpu0.iq.FU_type_0::IntDiv                   24      0.00%     77.36% # Type of FU issued
system.cpu0.iq.FU_type_0::FloatAdd              22186      0.12%     77.48% # Type of FU issued
system.cpu0.iq.FU_type_0::FloatCmp                  0      0.00%     77.48% # Type of FU issued
system.cpu0.iq.FU_type_0::FloatCvt                  0      0.00%     77.48% # Type of FU issued
system.cpu0.iq.FU_type_0::FloatMult                 0      0.00%     77.48% # Type of FU issued
system.cpu0.iq.FU_type_0::FloatMultAcc              0      0.00%     77.48% # Type of FU issued
system.cpu0.iq.FU_type_0::FloatDiv                  0      0.00%     77.48% # Type of FU issued
system.cpu0.iq.FU_type_0::FloatMisc                 0      0.00%     77.48% # Type of FU issued
system.cpu0.iq.FU_type_0::FloatSqrt                 0      0.00%     77.48% # Type of FU issued
system.cpu0.iq.FU_type_0::SimdAdd                 378      0.00%     77.48% # Type of FU issued
system.cpu0.iq.FU_type_0::SimdAddAcc                0      0.00%     77.48% # Type of FU issued
system.cpu0.iq.FU_type_0::SimdAlu                 104      0.00%     77.48% # Type of FU issued
system.cpu0.iq.FU_type_0::SimdCmp                   0      0.00%     77.48% # Type of FU issued
system.cpu0.iq.FU_type_0::SimdCvt               27054      0.15%     77.63% # Type of FU issued
system.cpu0.iq.FU_type_0::SimdMisc             104481      0.57%     78.20% # Type of FU issued
system.cpu0.iq.FU_type_0::SimdMult                  0      0.00%     78.20% # Type of FU issued
system.cpu0.iq.FU_type_0::SimdMultAcc               0      0.00%     78.20% # Type of FU issued
system.cpu0.iq.FU_type_0::SimdShift               186      0.00%     78.20% # Type of FU issued
system.cpu0.iq.FU_type_0::SimdShiftAcc              0      0.00%     78.20% # Type of FU issued
system.cpu0.iq.FU_type_0::SimdDiv                   0      0.00%     78.20% # Type of FU issued
system.cpu0.iq.FU_type_0::SimdSqrt                  0      0.00%     78.20% # Type of FU issued
system.cpu0.iq.FU_type_0::SimdFloatAdd              0      0.00%     78.20% # Type of FU issued
system.cpu0.iq.FU_type_0::SimdFloatAlu              0      0.00%     78.20% # Type of FU issued
system.cpu0.iq.FU_type_0::SimdFloatCmp              0      0.00%     78.20% # Type of FU issued
system.cpu0.iq.FU_type_0::SimdFloatCvt              0      0.00%     78.20% # Type of FU issued
system.cpu0.iq.FU_type_0::SimdFloatDiv              0      0.00%     78.20% # Type of FU issued
system.cpu0.iq.FU_type_0::SimdFloatMisc             0      0.00%     78.20% # Type of FU issued
system.cpu0.iq.FU_type_0::SimdFloatMult             0      0.00%     78.20% # Type of FU issued
system.cpu0.iq.FU_type_0::SimdFloatMultAcc            0      0.00%     78.20% # Type of FU issued
system.cpu0.iq.FU_type_0::SimdFloatSqrt             0      0.00%     78.20% # Type of FU issued
system.cpu0.iq.FU_type_0::SimdReduceAdd             0      0.00%     78.20% # Type of FU issued
system.cpu0.iq.FU_type_0::SimdReduceAlu             0      0.00%     78.20% # Type of FU issued
system.cpu0.iq.FU_type_0::SimdReduceCmp             0      0.00%     78.20% # Type of FU issued
system.cpu0.iq.FU_type_0::SimdFloatReduceAdd            0      0.00%     78.20% # Type of FU issued
system.cpu0.iq.FU_type_0::SimdFloatReduceCmp            0      0.00%     78.20% # Type of FU issued
system.cpu0.iq.FU_type_0::SimdAes                   0      0.00%     78.20% # Type of FU issued
system.cpu0.iq.FU_type_0::SimdAesMix                0      0.00%     78.20% # Type of FU issued
system.cpu0.iq.FU_type_0::SimdSha1Hash              0      0.00%     78.20% # Type of FU issued
system.cpu0.iq.FU_type_0::SimdSha1Hash2             0      0.00%     78.20% # Type of FU issued
system.cpu0.iq.FU_type_0::SimdSha256Hash            0      0.00%     78.20% # Type of FU issued
system.cpu0.iq.FU_type_0::SimdSha256Hash2            0      0.00%     78.20% # Type of FU issued
system.cpu0.iq.FU_type_0::SimdShaSigma2             0      0.00%     78.20% # Type of FU issued
system.cpu0.iq.FU_type_0::SimdShaSigma3             0      0.00%     78.20% # Type of FU issued
system.cpu0.iq.FU_type_0::SimdPredAlu               0      0.00%     78.20% # Type of FU issued
system.cpu0.iq.FU_type_0::MemRead             2386658     12.97%     91.17% # Type of FU issued
system.cpu0.iq.FU_type_0::MemWrite            1524392      8.29%     99.46% # Type of FU issued
system.cpu0.iq.FU_type_0::FloatMemRead          65184      0.35%     99.82% # Type of FU issued
system.cpu0.iq.FU_type_0::FloatMemWrite         33858      0.18%    100.00% # Type of FU issued
system.cpu0.iq.FU_type_0::IprAccess                 0      0.00%    100.00% # Type of FU issued
system.cpu0.iq.FU_type_0::InstPrefetch              0      0.00%    100.00% # Type of FU issued
system.cpu0.iq.FU_type_0::total              18394955                       # Type of FU issued
system.cpu0.iq.fp_alu_accesses                 265554                       # Number of floating point alu accesses
system.cpu0.iq.fp_inst_queue_reads             530630                       # Number of floating instruction queue reads
system.cpu0.iq.fp_inst_queue_wakeup_accesses       260145                       # Number of floating instruction queue wakeup accesses
system.cpu0.iq.fp_inst_queue_writes            293241                       # Number of floating instruction queue writes
system.cpu0.iq.fu_busy_cnt                     254841                       # FU busy when requested
system.cpu0.iq.fu_busy_rate                  0.013854                       # FU busy rate (busy events/executed inst)
system.cpu0.iq.fu_full::No_OpClass                  0      0.00%      0.00% # attempts to use FU when none available
system.cpu0.iq.fu_full::IntAlu                 217802     85.47%     85.47% # attempts to use FU when none available
system.cpu0.iq.fu_full::IntMult                     0      0.00%     85.47% # attempts to use FU when none available
system.cpu0.iq.fu_full::IntDiv                      0      0.00%     85.47% # attempts to use FU when none available
system.cpu0.iq.fu_full::FloatAdd                    0      0.00%     85.47% # attempts to use FU when none available
system.cpu0.iq.fu_full::FloatCmp                    0      0.00%     85.47% # attempts to use FU when none available
system.cpu0.iq.fu_full::FloatCvt                    0      0.00%     85.47% # attempts to use FU when none available
system.cpu0.iq.fu_full::FloatMult                   0      0.00%     85.47% # attempts to use FU when none available
system.cpu0.iq.fu_full::FloatMultAcc                0      0.00%     85.47% # attempts to use FU when none available
system.cpu0.iq.fu_full::FloatDiv                    0      0.00%     85.47% # attempts to use FU when none available
system.cpu0.iq.fu_full::FloatMisc                   0      0.00%     85.47% # attempts to use FU when none available
system.cpu0.iq.fu_full::FloatSqrt                   0      0.00%     85.47% # attempts to use FU when none available
system.cpu0.iq.fu_full::SimdAdd                     1      0.00%     85.47% # attempts to use FU when none available
system.cpu0.iq.fu_full::SimdAddAcc                  0      0.00%     85.47% # attempts to use FU when none available
system.cpu0.iq.fu_full::SimdAlu                    12      0.00%     85.47% # attempts to use FU when none available
system.cpu0.iq.fu_full::SimdCmp                     0      0.00%     85.47% # attempts to use FU when none available
system.cpu0.iq.fu_full::SimdCvt                   451      0.18%     85.65% # attempts to use FU when none available
system.cpu0.iq.fu_full::SimdMisc                    7      0.00%     85.65% # attempts to use FU when none available
system.cpu0.iq.fu_full::SimdMult                    0      0.00%     85.65% # attempts to use FU when none available
system.cpu0.iq.fu_full::SimdMultAcc                 0      0.00%     85.65% # attempts to use FU when none available
system.cpu0.iq.fu_full::SimdShift                   0      0.00%     85.65% # attempts to use FU when none available
system.cpu0.iq.fu_full::SimdShiftAcc                0      0.00%     85.65% # attempts to use FU when none available
system.cpu0.iq.fu_full::SimdDiv                     0      0.00%     85.65% # attempts to use FU when none available
system.cpu0.iq.fu_full::SimdSqrt                    0      0.00%     85.65% # attempts to use FU when none available
system.cpu0.iq.fu_full::SimdFloatAdd                0      0.00%     85.65% # attempts to use FU when none available
system.cpu0.iq.fu_full::SimdFloatAlu                0      0.00%     85.65% # attempts to use FU when none available
system.cpu0.iq.fu_full::SimdFloatCmp                0      0.00%     85.65% # attempts to use FU when none available
system.cpu0.iq.fu_full::SimdFloatCvt                0      0.00%     85.65% # attempts to use FU when none available
system.cpu0.iq.fu_full::SimdFloatDiv                0      0.00%     85.65% # attempts to use FU when none available
system.cpu0.iq.fu_full::SimdFloatMisc               0      0.00%     85.65% # attempts to use FU when none available
system.cpu0.iq.fu_full::SimdFloatMult               0      0.00%     85.65% # attempts to use FU when none available
system.cpu0.iq.fu_full::SimdFloatMultAcc            0      0.00%     85.65% # attempts to use FU when none available
system.cpu0.iq.fu_full::SimdFloatSqrt               0      0.00%     85.65% # attempts to use FU when none available
system.cpu0.iq.fu_full::SimdReduceAdd               0      0.00%     85.65% # attempts to use FU when none available
system.cpu0.iq.fu_full::SimdReduceAlu               0      0.00%     85.65% # attempts to use FU when none available
system.cpu0.iq.fu_full::SimdReduceCmp               0      0.00%     85.65% # attempts to use FU when none available
system.cpu0.iq.fu_full::SimdFloatReduceAdd            0      0.00%     85.65% # attempts to use FU when none available
system.cpu0.iq.fu_full::SimdFloatReduceCmp            0      0.00%     85.65% # attempts to use FU when none available
system.cpu0.iq.fu_full::SimdAes                     0      0.00%     85.65% # attempts to use FU when none available
system.cpu0.iq.fu_full::SimdAesMix                  0      0.00%     85.65% # attempts to use FU when none available
system.cpu0.iq.fu_full::SimdSha1Hash                0      0.00%     85.65% # attempts to use FU when none available
system.cpu0.iq.fu_full::SimdSha1Hash2               0      0.00%     85.65% # attempts to use FU when none available
system.cpu0.iq.fu_full::SimdSha256Hash              0      0.00%     85.65% # attempts to use FU when none available
system.cpu0.iq.fu_full::SimdSha256Hash2             0      0.00%     85.65% # attempts to use FU when none available
system.cpu0.iq.fu_full::SimdShaSigma2               0      0.00%     85.65% # attempts to use FU when none available
system.cpu0.iq.fu_full::SimdShaSigma3               0      0.00%     85.65% # attempts to use FU when none available
system.cpu0.iq.fu_full::SimdPredAlu                 0      0.00%     85.65% # attempts to use FU when none available
system.cpu0.iq.fu_full::MemRead                 30786     12.08%     97.73% # attempts to use FU when none available
system.cpu0.iq.fu_full::MemWrite                 5738      2.25%     99.98% # attempts to use FU when none available
system.cpu0.iq.fu_full::FloatMemRead               20      0.01%     99.99% # attempts to use FU when none available
system.cpu0.iq.fu_full::FloatMemWrite              24      0.01%    100.00% # attempts to use FU when none available
system.cpu0.iq.fu_full::IprAccess                   0      0.00%    100.00% # attempts to use FU when none available
system.cpu0.iq.fu_full::InstPrefetch                0      0.00%    100.00% # attempts to use FU when none available
system.cpu0.iq.int_alu_accesses              18325757                       # Number of integer alu accesses
system.cpu0.iq.int_inst_queue_reads          45175166                       # Number of integer instruction queue reads
system.cpu0.iq.int_inst_queue_wakeup_accesses     17979533                       # Number of integer instruction queue wakeup accesses
system.cpu0.iq.int_inst_queue_writes         19549534                       # Number of integer instruction queue writes
system.cpu0.iq.iqInstsAdded                  18705537                       # Number of instructions added to the IQ (excludes non-spec)
system.cpu0.iq.iqInstsIssued                 18394955                       # Number of instructions issued
system.cpu0.iq.iqNonSpecInstsAdded                177                       # Number of non-speculative instructions added to the IQ
system.cpu0.iq.iqSquashedInstsExamined        1136799                       # Number of squashed instructions iterated over during squash; mainly for profiling
system.cpu0.iq.iqSquashedInstsIssued             5493                       # Number of squashed instructions issued
system.cpu0.iq.iqSquashedNonSpecRemoved           115                       # Number of squashed non-spec instructions that were removed
system.cpu0.iq.iqSquashedOperandsExamined      1353259                       # Number of squashed operands that are examined and possibly removed from graph
system.cpu0.iq.issued_per_cycle::samples      8655558                       # Number of insts issued each cycle
system.cpu0.iq.issued_per_cycle::mean        2.125219                       # Number of insts issued each cycle
system.cpu0.iq.issued_per_cycle::stdev       2.425851                       # Number of insts issued each cycle
system.cpu0.iq.issued_per_cycle::underflows            0      0.00%      0.00% # Number of insts issued each cycle
system.cpu0.iq.issued_per_cycle::0            3848534     44.46%     44.46% # Number of insts issued each cycle
system.cpu0.iq.issued_per_cycle::1             649162      7.50%     51.96% # Number of insts issued each cycle
system.cpu0.iq.issued_per_cycle::2             960200     11.09%     63.06% # Number of insts issued each cycle
system.cpu0.iq.issued_per_cycle::3             782008      9.03%     72.09% # Number of insts issued each cycle
system.cpu0.iq.issued_per_cycle::4             542190      6.26%     78.36% # Number of insts issued each cycle
system.cpu0.iq.issued_per_cycle::5             604066      6.98%     85.33% # Number of insts issued each cycle
system.cpu0.iq.issued_per_cycle::6             728242      8.41%     93.75% # Number of insts issued each cycle
system.cpu0.iq.issued_per_cycle::7             408421      4.72%     98.47% # Number of insts issued each cycle
system.cpu0.iq.issued_per_cycle::8             132735      1.53%    100.00% # Number of insts issued each cycle
system.cpu0.iq.issued_per_cycle::overflows            0      0.00%    100.00% # Number of insts issued each cycle
system.cpu0.iq.issued_per_cycle::min_value            0                       # Number of insts issued each cycle
system.cpu0.iq.issued_per_cycle::max_value            8                       # Number of insts issued each cycle
system.cpu0.iq.issued_per_cycle::total        8655558                       # Number of insts issued each cycle
system.cpu0.iq.rate                          2.104301                       # Inst issue rate
system.cpu0.iq.vec_alu_accesses                     0                       # Number of vector alu accesses
system.cpu0.iq.vec_inst_queue_reads                 0                       # Number of vector instruction queue reads
system.cpu0.iq.vec_inst_queue_wakeup_accesses            0                       # Number of vector instruction queue wakeup accesses
system.cpu0.iq.vec_inst_queue_writes                0                       # Number of vector instruction queue writes
system.cpu0.itb.rdAccesses                          0                       # TLB accesses on read requests
system.cpu0.itb.rdMisses                            0                       # TLB misses on read requests
system.cpu0.itb.walker.pwrStateResidencyTicks::UNDEFINED   8741598000                       # Cumulative time (in ticks) in various power states
system.cpu0.itb.wrAccesses                    1422000                       # TLB accesses on write requests
system.cpu0.itb.wrMisses                          159                       # TLB misses on write requests
system.cpu0.memDep0.conflictingLoads           170660                       # Number of conflicting loads.
system.cpu0.memDep0.conflictingStores           57030                       # Number of conflicting stores.
system.cpu0.memDep0.insertedLoads             2487031                       # Number of loads inserted to the mem dependence unit.
system.cpu0.memDep0.insertedStores            1580860                       # Number of stores inserted to the mem dependence unit.
system.cpu0.misc_regfile_reads                7968412                       # number of misc regfile reads
system.cpu0.numCycles                         8741599                       # number of cpu cycles simulated
system.cpu0.numWorkItemsCompleted                   0                       # number of work items this cpu completed
system.cpu0.numWorkItemsStarted                     0                       # number of work items this cpu started
system.cpu0.pwrStateResidencyTicks::ON     8741598000                       # Cumulative time (in ticks) in various power states
system.cpu0.rename.BlockCycles                 183492                       # Number of cycles rename is blocking
system.cpu0.rename.CommittedMaps             19967686                       # Number of HB maps that are committed
system.cpu0.rename.IQFullEvents                  4575                       # Number of times rename has blocked due to IQ full
system.cpu0.rename.IdleCycles                 2686514                       # Number of cycles rename is idle
system.cpu0.rename.LQFullEvents                796613                       # Number of times rename has blocked due to LQ full
system.cpu0.rename.ROBFullEvents                  195                       # Number of times rename has blocked due to ROB full
system.cpu0.rename.RenameLookups             48803879                       # Number of register rename lookups that rename has made
system.cpu0.rename.RenamedInsts              19085721                       # Number of instructions processed by rename
system.cpu0.rename.RenamedOperands           21456807                       # Number of destination operands rename has renamed
system.cpu0.rename.RunCycles                  2859090                       # Number of cycles rename is running
system.cpu0.rename.SQFullEvents               2060154                       # Number of times rename has blocked due to SQ full
system.cpu0.rename.SquashCycles                 47795                       # Number of cycles rename is squashing
system.cpu0.rename.UnblockCycles              2876995                       # Number of cycles rename is unblocking
system.cpu0.rename.UndoneMaps                 1489072                       # Number of HB maps that are undone due to squashing
system.cpu0.rename.fp_rename_lookups           330788                       # Number of floating rename lookups
system.cpu0.rename.int_rename_lookups        29146012                       # Number of integer rename lookups
system.cpu0.rename.serializeStallCycles          1672                       # count of cycles rename stalled for serializing inst
system.cpu0.rename.serializingInsts                42                       # count of serializing insts renamed
system.cpu0.rename.skidInsts                   891292                       # count of insts added to the skid buffer
system.cpu0.rename.tempSerializingInsts            40                       # count of temporary serializing insts renamed
system.cpu0.rob.rob_reads                    26209604                       # The number of ROB reads
system.cpu0.rob.rob_writes                   37582699                       # The number of ROB writes
system.cpu0.timesIdled                          11405                       # Number of times that the entire CPU went into an idle state and unscheduled itself
system.cpu0.workload.numSyscalls                   26                       # Number of system calls
system.cpu1.branchPred.BTBCorrect                   0                       # Number of correct BTB predictions (this stat may not work properly.
system.cpu1.branchPred.BTBHitPct             0.000000                       # BTB Hit Percentage
system.cpu1.branchPred.BTBHits                      0                       # Number of BTB hits
system.cpu1.branchPred.BTBLookups             1923642                       # Number of BTB lookups
system.cpu1.branchPred.RASInCorrect                 3                       # Number of incorrect RAS predictions.
system.cpu1.branchPred.condIncorrect            39952                       # Number of conditional branches incorrect
system.cpu1.branchPred.condPredicted          1993928                       # Number of conditional branches predicted
system.cpu1.branchPred.indirectHits            834487                       # Number of indirect target hits.
system.cpu1.branchPred.indirectLookups        1923642                       # Number of indirect predictor lookups.
system.cpu1.branchPred.indirectMisses         1089155                       # Number of indirect misses.
system.cpu1.branchPred.lookups                2205360                       # Number of BP lookups
system.cpu1.branchPred.usedRAS                  96695                       # Number of times the RAS was used to get a target.
system.cpu1.branchPredindirectMispredicted        36842                       # Number of mispredicted indirect branches.
system.cpu1.cc_regfile_reads                 10640601                       # number of cc regfile reads
system.cpu1.cc_regfile_writes                 6034575                       # number of cc regfile writes
system.cpu1.commit.amos                             0                       # Number of atomic instructions committed
system.cpu1.commit.branchMispredicts            40107                       # The number of times a branch was mispredicted
system.cpu1.commit.branches                   1986836                       # Number of branches committed
system.cpu1.commit.bw_lim_events              1008460                       # number cycles where commit BW limit reached
system.cpu1.commit.commitNonSpecStalls             62                       # The number of times commit has been forced to stall to communicate backwards
system.cpu1.commit.commitSquashedInsts         778465                       # The number of squashed insts skipped by commit
system.cpu1.commit.committedInsts             9969739                       # Number of instructions committed
system.cpu1.commit.committedOps              17889064                       # Number of ops (including micro ops) committed
system.cpu1.commit.committed_per_cycle::samples      8553566                       # Number of insts commited each cycle
system.cpu1.commit.committed_per_cycle::mean     2.091416                       # Number of insts commited each cycle
system.cpu1.commit.committed_per_cycle::stdev     2.736035                       # Number of insts commited each cycle
system.cpu1.commit.committed_per_cycle::underflows            0      0.00%      0.00% # Number of insts commited each cycle
system.cpu1.commit.committed_per_cycle::0      4077329     47.67%     47.67% # Number of insts commited each cycle
system.cpu1.commit.committed_per_cycle::1       886614     10.37%     58.03% # Number of insts commited each cycle
system.cpu1.commit.committed_per_cycle::2       656946      7.68%     65.71% # Number of insts commited each cycle
system.cpu1.commit.committed_per_cycle::3      1014815     11.86%     77.58% # Number of insts commited each cycle
system.cpu1.commit.committed_per_cycle::4       424626      4.96%     82.54% # Number of insts commited each cycle
system.cpu1.commit.committed_per_cycle::5       204416      2.39%     84.93% # Number of insts commited each cycle
system.cpu1.commit.committed_per_cycle::6       106671      1.25%     86.18% # Number of insts commited each cycle
system.cpu1.commit.committed_per_cycle::7       173689      2.03%     88.21% # Number of insts commited each cycle
system.cpu1.commit.committed_per_cycle::8      1008460     11.79%    100.00% # Number of insts commited each cycle
system.cpu1.commit.committed_per_cycle::overflows            0      0.00%    100.00% # Number of insts commited each cycle
system.cpu1.commit.committed_per_cycle::min_value            0                       # Number of insts commited each cycle
system.cpu1.commit.committed_per_cycle::max_value            8                       # Number of insts commited each cycle
system.cpu1.commit.committed_per_cycle::total      8553566                       # Number of insts commited each cycle
system.cpu1.commit.fp_insts                    254565                       # Number of committed floating point instructions.
system.cpu1.commit.function_calls               96101                       # Number of function calls committed.
system.cpu1.commit.int_insts                 17727437                       # Number of committed integer instructions.
system.cpu1.commit.loads                      2379136                       # Number of loads committed
system.cpu1.commit.membars                         24                       # Number of memory barriers committed
system.cpu1.commit.op_class_0::No_OpClass        33935      0.19%      0.19% # Class of committed instruction
system.cpu1.commit.op_class_0::IntAlu        13777326     77.02%     77.21% # Class of committed instruction
system.cpu1.commit.op_class_0::IntMult          36913      0.21%     77.41% # Class of committed instruction
system.cpu1.commit.op_class_0::IntDiv              21      0.00%     77.41% # Class of committed instruction
system.cpu1.commit.op_class_0::FloatAdd         22568      0.13%     77.54% # Class of committed instruction
system.cpu1.commit.op_class_0::FloatCmp             0      0.00%     77.54% # Class of committed instruction
system.cpu1.commit.op_class_0::FloatCvt             0      0.00%     77.54% # Class of committed instruction
system.cpu1.commit.op_class_0::FloatMult            0      0.00%     77.54% # Class of committed instruction
system.cpu1.commit.op_class_0::FloatMultAcc            0      0.00%     77.54% # Class of committed instruction
system.cpu1.commit.op_class_0::FloatDiv             0      0.00%     77.54% # Class of committed instruction
system.cpu1.commit.op_class_0::FloatMisc            0      0.00%     77.54% # Class of committed instruction
system.cpu1.commit.op_class_0::FloatSqrt            0      0.00%     77.54% # Class of committed instruction
system.cpu1.commit.op_class_0::SimdAdd            374      0.00%     77.54% # Class of committed instruction
system.cpu1.commit.op_class_0::SimdAddAcc            0      0.00%     77.54% # Class of committed instruction
system.cpu1.commit.op_class_0::SimdAlu            100      0.00%     77.54% # Class of committed instruction
system.cpu1.commit.op_class_0::SimdCmp              0      0.00%     77.54% # Class of committed instruction
system.cpu1.commit.op_class_0::SimdCvt          24100      0.13%     77.68% # Class of committed instruction
system.cpu1.commit.op_class_0::SimdMisc        103180      0.58%     78.25% # Class of committed instruction
system.cpu1.commit.op_class_0::SimdMult             0      0.00%     78.25% # Class of committed instruction
system.cpu1.commit.op_class_0::SimdMultAcc            0      0.00%     78.25% # Class of committed instruction
system.cpu1.commit.op_class_0::SimdShift          186      0.00%     78.25% # Class of committed instruction
system.cpu1.commit.op_class_0::SimdShiftAcc            0      0.00%     78.25% # Class of committed instruction
system.cpu1.commit.op_class_0::SimdDiv              0      0.00%     78.25% # Class of committed instruction
system.cpu1.commit.op_class_0::SimdSqrt             0      0.00%     78.25% # Class of committed instruction
system.cpu1.commit.op_class_0::SimdFloatAdd            0      0.00%     78.25% # Class of committed instruction
system.cpu1.commit.op_class_0::SimdFloatAlu            0      0.00%     78.25% # Class of committed instruction
system.cpu1.commit.op_class_0::SimdFloatCmp            0      0.00%     78.25% # Class of committed instruction
system.cpu1.commit.op_class_0::SimdFloatCvt            0      0.00%     78.25% # Class of committed instruction
system.cpu1.commit.op_class_0::SimdFloatDiv            0      0.00%     78.25% # Class of committed instruction
system.cpu1.commit.op_class_0::SimdFloatMisc            0      0.00%     78.25% # Class of committed instruction
system.cpu1.commit.op_class_0::SimdFloatMult            0      0.00%     78.25% # Class of committed instruction
system.cpu1.commit.op_class_0::SimdFloatMultAcc            0      0.00%     78.25% # Class of committed instruction
system.cpu1.commit.op_class_0::SimdFloatSqrt            0      0.00%     78.25% # Class of committed instruction
system.cpu1.commit.op_class_0::SimdReduceAdd            0      0.00%     78.25% # Class of committed instruction
system.cpu1.commit.op_class_0::SimdReduceAlu            0      0.00%     78.25% # Class of committed instruction
system.cpu1.commit.op_class_0::SimdReduceCmp            0      0.00%     78.25% # Class of committed instruction
system.cpu1.commit.op_class_0::SimdFloatReduceAdd            0      0.00%     78.25% # Class of committed instruction
system.cpu1.commit.op_class_0::SimdFloatReduceCmp            0      0.00%     78.25% # Class of committed instruction
system.cpu1.commit.op_class_0::SimdAes              0      0.00%     78.25% # Class of committed instruction
system.cpu1.commit.op_class_0::SimdAesMix            0      0.00%     78.25% # Class of committed instruction
system.cpu1.commit.op_class_0::SimdSha1Hash            0      0.00%     78.25% # Class of committed instruction
system.cpu1.commit.op_class_0::SimdSha1Hash2            0      0.00%     78.25% # Class of committed instruction
system.cpu1.commit.op_class_0::SimdSha256Hash            0      0.00%     78.25% # Class of committed instruction
system.cpu1.commit.op_class_0::SimdSha256Hash2            0      0.00%     78.25% # Class of committed instruction
system.cpu1.commit.op_class_0::SimdShaSigma2            0      0.00%     78.25% # Class of committed instruction
system.cpu1.commit.op_class_0::SimdShaSigma3            0      0.00%     78.25% # Class of committed instruction
[...]
system.mem_ctrl.wrPerTurnAround::mean       16.477050                       # Writes before turning the bus around for reads
system.mem_ctrl.wrPerTurnAround::gmean      16.436588                       # Writes before turning the bus around for reads
system.mem_ctrl.wrPerTurnAround::stdev       1.226658                       # Writes before turning the bus around for reads
system.mem_ctrl.wrPerTurnAround::16              6872     84.34%     84.34% # Writes before turning the bus around for reads
system.mem_ctrl.wrPerTurnAround::17                96      1.18%     85.52% # Writes before turning the bus around for reads
system.mem_ctrl.wrPerTurnAround::18               421      5.17%     90.68% # Writes before turning the bus around for reads
system.mem_ctrl.wrPerTurnAround::19               356      4.37%     95.05% # Writes before turning the bus around for reads
system.mem_ctrl.wrPerTurnAround::20               223      2.74%     97.79% # Writes before turning the bus around for reads
system.mem_ctrl.wrPerTurnAround::21               118      1.45%     99.24% # Writes before turning the bus around for reads
system.mem_ctrl.wrPerTurnAround::22                45      0.55%     99.79% # Writes before turning the bus around for reads
system.mem_ctrl.wrPerTurnAround::23                10      0.12%     99.91% # Writes before turning the bus around for reads
system.mem_ctrl.wrPerTurnAround::24                 5      0.06%     99.98% # Writes before turning the bus around for reads
system.mem_ctrl.wrPerTurnAround::25                 1      0.01%     99.99% # Writes before turning the bus around for reads
system.mem_ctrl.wrPerTurnAround::26                 1      0.01%    100.00% # Writes before turning the bus around for reads
system.mem_ctrl.wrPerTurnAround::total           8148                       # Writes before turning the bus around for reads
system.mem_ctrl.wrQLenPdf::0                        1                       # What write queue length does an incoming req see
system.mem_ctrl.wrQLenPdf::1                        1                       # What write queue length does an incoming req see
system.mem_ctrl.wrQLenPdf::2                        1                       # What write queue length does an incoming req see
system.mem_ctrl.wrQLenPdf::3                        1                       # What write queue length does an incoming req see
system.mem_ctrl.wrQLenPdf::4                        1                       # What write queue length does an incoming req see
system.mem_ctrl.wrQLenPdf::5                        1                       # What write queue length does an incoming req see
system.mem_ctrl.wrQLenPdf::6                        1                       # What write queue length does an incoming req see
system.mem_ctrl.wrQLenPdf::7                        1                       # What write queue length does an incoming req see
system.mem_ctrl.wrQLenPdf::8                        1                       # What write queue length does an incoming req see
system.mem_ctrl.wrQLenPdf::9                        1                       # What write queue length does an incoming req see
system.mem_ctrl.wrQLenPdf::10                       1                       # What write queue length does an incoming req see
system.mem_ctrl.wrQLenPdf::11                       1                       # What write queue length does an incoming req see
system.mem_ctrl.wrQLenPdf::12                       1                       # What write queue length does an incoming req see
system.mem_ctrl.wrQLenPdf::13                       1                       # What write queue length does an incoming req see
system.mem_ctrl.wrQLenPdf::14                       1                       # What write queue length does an incoming req see
system.mem_ctrl.wrQLenPdf::15                     991                       # What write queue length does an incoming req see
system.mem_ctrl.wrQLenPdf::16                    1152                       # What write queue length does an incoming req see
system.mem_ctrl.wrQLenPdf::17                    3353                       # What write queue length does an incoming req see
system.mem_ctrl.wrQLenPdf::18                    5644                       # What write queue length does an incoming req see
system.mem_ctrl.wrQLenPdf::19                    7316                       # What write queue length does an incoming req see
system.mem_ctrl.wrQLenPdf::20                    8293                       # What write queue length does an incoming req see
system.mem_ctrl.wrQLenPdf::21                    8674                       # What write queue length does an incoming req see
system.mem_ctrl.wrQLenPdf::22                    8861                       # What write queue length does an incoming req see
system.mem_ctrl.wrQLenPdf::23                    8996                       # What write queue length does an incoming req see
system.mem_ctrl.wrQLenPdf::24                    9115                       # What write queue length does an incoming req see
system.mem_ctrl.wrQLenPdf::25                    9023                       # What write queue length does an incoming req see
system.mem_ctrl.wrQLenPdf::26                    9776                       # What write queue length does an incoming req see
system.mem_ctrl.wrQLenPdf::27                    9233                       # What write queue length does an incoming req see
system.mem_ctrl.wrQLenPdf::28                    9154                       # What write queue length does an incoming req see
system.mem_ctrl.wrQLenPdf::29                    9240                       # What write queue length does an incoming req see
system.mem_ctrl.wrQLenPdf::30                    8502                       # What write queue length does an incoming req see
system.mem_ctrl.wrQLenPdf::31                    8340                       # What write queue length does an incoming req see
system.mem_ctrl.wrQLenPdf::32                    8325                       # What write queue length does an incoming req see
system.mem_ctrl.wrQLenPdf::33                     166                       # What write queue length does an incoming req see
system.mem_ctrl.wrQLenPdf::34                      56                       # What write queue length does an incoming req see
system.mem_ctrl.wrQLenPdf::35                      29                       # What write queue length does an incoming req see
system.mem_ctrl.wrQLenPdf::36                      14                       # What write queue length does an incoming req see
system.mem_ctrl.wrQLenPdf::37                       8                       # What write queue length does an incoming req see
system.mem_ctrl.wrQLenPdf::38                       7                       # What write queue length does an incoming req see
system.mem_ctrl.wrQLenPdf::39                       3                       # What write queue length does an incoming req see
system.mem_ctrl.wrQLenPdf::40                       0                       # What write queue length does an incoming req see
system.mem_ctrl.wrQLenPdf::41                       0                       # What write queue length does an incoming req see
system.mem_ctrl.wrQLenPdf::42                       0                       # What write queue length does an incoming req see
system.mem_ctrl.wrQLenPdf::43                       0                       # What write queue length does an incoming req see
system.mem_ctrl.wrQLenPdf::44                       0                       # What write queue length does an incoming req see
system.mem_ctrl.wrQLenPdf::45                       0                       # What write queue length does an incoming req see
system.mem_ctrl.wrQLenPdf::46                       0                       # What write queue length does an incoming req see
system.mem_ctrl.wrQLenPdf::47                       0                       # What write queue length does an incoming req see
system.mem_ctrl.wrQLenPdf::48                       0                       # What write queue length does an incoming req see
system.mem_ctrl.wrQLenPdf::49                       0                       # What write queue length does an incoming req see
system.mem_ctrl.wrQLenPdf::50                       0                       # What write queue length does an incoming req see
system.mem_ctrl.wrQLenPdf::51                       0                       # What write queue length does an incoming req see
system.mem_ctrl.wrQLenPdf::52                       0                       # What write queue length does an incoming req see
system.mem_ctrl.wrQLenPdf::53                       0                       # What write queue length does an incoming req see
system.mem_ctrl.wrQLenPdf::54                       0                       # What write queue length does an incoming req see
system.mem_ctrl.wrQLenPdf::55                       0                       # What write queue length does an incoming req see
system.mem_ctrl.wrQLenPdf::56                       0                       # What write queue length does an incoming req see
system.mem_ctrl.wrQLenPdf::57                       0                       # What write queue length does an incoming req see
system.mem_ctrl.wrQLenPdf::58                       0                       # What write queue length does an incoming req see
system.mem_ctrl.wrQLenPdf::59                       0                       # What write queue length does an incoming req see
system.mem_ctrl.wrQLenPdf::60                       0                       # What write queue length does an incoming req see
system.mem_ctrl.wrQLenPdf::61                       0                       # What write queue length does an incoming req see
system.mem_ctrl.wrQLenPdf::62                       0                       # What write queue length does an incoming req see
system.mem_ctrl.wrQLenPdf::63                       0                       # What write queue length does an incoming req see
system.mem_ctrl.writeBursts                    134286                       # Number of DRAM write bursts, including those merged in the write queue
system.mem_ctrl.writePktSize::0                     0                       # Write request sizes (log2)
system.mem_ctrl.writePktSize::1                     0                       # Write request sizes (log2)
system.mem_ctrl.writePktSize::2                     0                       # Write request sizes (log2)
system.mem_ctrl.writePktSize::3                     0                       # Write request sizes (log2)
system.mem_ctrl.writePktSize::4                     0                       # Write request sizes (log2)
system.mem_ctrl.writePktSize::5                     0                       # Write request sizes (log2)
system.mem_ctrl.writePktSize::6                134286                       # Write request sizes (log2)
system.mem_ctrl.writeReqs                      134286                       # Number of write requests accepted
system.mem_ctrl.writeRowHitRate                 72.23                       # Row buffer hit rate for writes
system.mem_ctrl.writeRowHits                    96999                       # Number of row buffer hits during writes
system.mem_ctrl_0.actBackEnergy            3951348870                       # Energy for active background per rank (pJ)
system.mem_ctrl_0.actEnergy                 360120180                       # Energy for activate commands per rank (pJ)
system.mem_ctrl_0.actPowerDownEnergy                0                       # Energy for active power-down per rank (pJ)
system.mem_ctrl_0.averagePower             696.894346                       # Core power per rank (mW)
system.mem_ctrl_0.memoryStateTime::IDLE      43424754                       # Time in different power states
system.mem_ctrl_0.memoryStateTime::REF      291720000                       # Time in different power states
system.mem_ctrl_0.memoryStateTime::SREF             0                       # Time in different power states
system.mem_ctrl_0.memoryStateTime::PRE_PDN            0                       # Time in different power states
system.mem_ctrl_0.memoryStateTime::ACT     8406453246                       # Time in different power states
system.mem_ctrl_0.memoryStateTime::ACT_PDN            0                       # Time in different power states
system.mem_ctrl_0.preBackEnergy              29322240                       # Energy for precharge background per rank (pJ)
system.mem_ctrl_0.preEnergy                 191381850                       # Energy for precharge commands per rank (pJ)
system.mem_ctrl_0.prePowerDownEnergy                0                       # Energy for precharge power-down per rank (pJ)
system.mem_ctrl_0.readEnergy                519877680                       # Energy for read commands per rank (pJ)
system.mem_ctrl_0.refreshEnergy          689626080.000000                       # Energy for refresh commands per rank (pJ)
system.mem_ctrl_0.selfRefreshEnergy                 0                       # Energy for self refresh per rank (pJ)
system.mem_ctrl_0.totalEnergy              6091970220                       # Total energy per rank (pJ)
system.mem_ctrl_0.totalIdleTime                     0                       # Total Idle time Per DRAM Rank
system.mem_ctrl_0.writeEnergy               350293320                       # Energy for write commands per rank (pJ)
system.mem_ctrl_1.actBackEnergy            3944959170                       # Energy for active background per rank (pJ)
system.mem_ctrl_1.actEnergy                 383539380                       # Energy for activate commands per rank (pJ)
system.mem_ctrl_1.actPowerDownEnergy                0                       # Energy for active power-down per rank (pJ)
system.mem_ctrl_1.averagePower             702.275343                       # Core power per rank (mW)
system.mem_ctrl_1.memoryStateTime::IDLE      57348510                       # Time in different power states
system.mem_ctrl_1.memoryStateTime::REF      291720000                       # Time in different power states
system.mem_ctrl_1.memoryStateTime::SREF             0                       # Time in different power states
system.mem_ctrl_1.memoryStateTime::PRE_PDN            0                       # Time in different power states
system.mem_ctrl_1.memoryStateTime::ACT     8392529490                       # Time in different power states
system.mem_ctrl_1.memoryStateTime::ACT_PDN            0                       # Time in different power states
system.mem_ctrl_1.preBackEnergy              34703040                       # Energy for precharge background per rank (pJ)
system.mem_ctrl_1.preEnergy                 203833245                       # Energy for precharge commands per rank (pJ)
system.mem_ctrl_1.prePowerDownEnergy                0                       # Energy for precharge power-down per rank (pJ)
system.mem_ctrl_1.readEnergy                531830040                       # Energy for read commands per rank (pJ)
system.mem_ctrl_1.refreshEnergy          689626080.000000                       # Energy for refresh commands per rank (pJ)
system.mem_ctrl_1.selfRefreshEnergy                 0                       # Energy for self refresh per rank (pJ)
system.mem_ctrl_1.totalEnergy              6139008735                       # Total energy per rank (pJ)
system.mem_ctrl_1.totalIdleTime                     0                       # Total Idle time Per DRAM Rank
system.mem_ctrl_1.writeEnergy               350517780                       # Energy for write commands per rank (pJ)
system.membus.pkt_count_system.l2cache.mem_side::system.mem_ctrl.port       434686                       # Packet count per connected master and slave (bytes)
system.membus.pkt_count_system.l2cache.mem_side::total       434686                       # Packet count per connected master and slave (bytes)
system.membus.pkt_count::total                 434686                       # Packet count per connected master and slave (bytes)
system.membus.pkt_size_system.l2cache.mem_side::system.mem_ctrl.port     18021376                       # Cumulative packet size per connected master and slave (bytes)
system.membus.pkt_size_system.l2cache.mem_side::total     18021376                       # Cumulative packet size per connected master and slave (bytes)
system.membus.pkt_size::total                18021376                       # Cumulative packet size per connected master and slave (bytes)
system.membus.pwrStateResidencyTicks::UNDEFINED   8741598000                       # Cumulative time (in ticks) in various power states
system.membus.reqLayer8.occupancy           889234233                       # Layer occupancy (ticks)
system.membus.reqLayer8.utilization              10.2                       # Layer utilization (%)
system.membus.respLayer0.occupancy          792127066                       # Layer occupancy (ticks)
system.membus.respLayer0.utilization              9.1                       # Layer utilization (%)
system.membus.snoopTraffic                          0                       # Total snoop traffic (bytes)
system.membus.snoop_fanout::samples            147302                       # Request fanout histogram
system.membus.snoop_fanout::mean                    0                       # Request fanout histogram
system.membus.snoop_fanout::stdev                   0                       # Request fanout histogram
system.membus.snoop_fanout::underflows              0      0.00%      0.00% # Request fanout histogram
system.membus.snoop_fanout::0                  147302    100.00%    100.00% # Request fanout histogram
system.membus.snoop_fanout::1                       0      0.00%    100.00% # Request fanout histogram
system.membus.snoop_fanout::overflows               0      0.00%    100.00% # Request fanout histogram
system.membus.snoop_fanout::min_value               0                       # Request fanout histogram
system.membus.snoop_fanout::max_value               0                       # Request fanout histogram
system.membus.snoop_fanout::total              147302                       # Request fanout histogram
system.membus.snoop_filter.hit_multi_requests            0                       # Number of requests hitting in the snoop filter with multiple (>1) holders of the requested data.
system.membus.snoop_filter.hit_multi_snoops            0                       # Number of snoops hitting in the snoop filter with multiple (>1) holders of the requested data.
system.membus.snoop_filter.hit_single_requests       140098                       # Number of requests hitting in the snoop filter with a single holder of the requested data.
system.membus.snoop_filter.hit_single_snoops            0                       # Number of snoops hitting in the snoop filter with a single holder of the requested data.
system.membus.snoop_filter.tot_requests        287388                       # Total number of requests made to the snoop filter.
system.membus.snoop_filter.tot_snoops               0                       # Total number of snoops made to the snoop filter.
system.membus.snoops                                0                       # Total snoops (count)
system.membus.trans_dist::ReadResp              43684                       # Transaction distribution
system.membus.trans_dist::WritebackDirty       134286                       # Transaction distribution
system.membus.trans_dist::CleanEvict             5800                       # Transaction distribution
system.membus.trans_dist::UpgradeReq                4                       # Transaction distribution
system.membus.trans_dist::ReadExReq            103614                       # Transaction distribution
system.membus.trans_dist::ReadExResp           103614                       # Transaction distribution
system.membus.trans_dist::ReadSharedReq         43684                       # Transaction distribution

---------- End Simulation Statistics   ----------
