
---------- Begin Simulation Statistics ----------
final_tick                                10122210000                       # Number of ticks from beginning of simulation (restored from checkpoints and never reset)
host_inst_rate                                  70439                       # Simulator instruction rate (inst/s)
host_mem_usage                                 857920                       # Number of bytes of host memory used
host_op_rate                                   113693                       # Simulator op (including micro ops) rate (op/s)
host_seconds                                   394.13                       # Real time elapsed on the host
host_tick_rate                               25682363                       # Simulator tick rate (ticks/s)
sim_freq                                 1000000000000                       # Frequency of simulated ticks
sim_insts                                    27762290                       # Number of instructions simulated
sim_ops                                      44809725                       # Number of ops (including micro ops) simulated
sim_seconds                                  0.010122                       # Number of seconds simulated
sim_ticks                                 10122210000                       # Number of ticks simulated
system.clk_domain.clock                          1000                       # Clock period in ticks
system.clk_domain.voltage_domain.voltage            1                       # Voltage in Volts
system.cpu0.branchPred.BTBCorrect                   0                       # Number of correct BTB predictions (this stat may not work properly.
system.cpu0.branchPred.BTBHitPct             0.000000                       # BTB Hit Percentage
system.cpu0.branchPred.BTBHits                      0                       # Number of BTB hits
system.cpu0.branchPred.BTBLookups             1936084                       # Number of BTB lookups
system.cpu0.branchPred.RASInCorrect                 2                       # Number of incorrect RAS predictions.
system.cpu0.branchPred.condIncorrect            40143                       # Number of conditional branches incorrect
system.cpu0.branchPred.condPredicted          1997295                       # Number of conditional branches predicted
system.cpu0.branchPred.indirectHits            837012                       # Number of indirect target hits.
system.cpu0.branchPred.indirectLookups        1936084                       # Number of indirect predictor lookups.
system.cpu0.branchPred.indirectMisses         1099072                       # Number of indirect misses.
system.cpu0.branchPred.lookups                2209330                       # Number of BP lookups
system.cpu0.branchPred.usedRAS                  97539                       # Number of times the RAS was used to get a target.
system.cpu0.branchPredindirectMispredicted        36965                       # Number of mispredicted indirect branches.
system.cpu0.cc_regfile_reads                 10673431                       # number of cc regfile reads
system.cpu0.cc_regfile_writes                 6053194                       # number of cc regfile writes
system.cpu0.commit.amos                             0                       # Number of atomic instructions committed
system.cpu0.commit.branchMispredicts            40233                       # The number of times a branch was mispredicted
system.cpu0.commit.branches                   1992938                       # Number of branches committed
system.cpu0.commit.bw_lim_events              1011983                       # number cycles where commit BW limit reached
system.cpu0.commit.commitNonSpecStalls             62                       # The number of times commit has been forced to stall to communicate backwards
system.cpu0.commit.commitSquashedInsts         782608                       # The number of squashed insts skipped by commit
system.cpu0.commit.committedInsts            10000000                       # Number of instructions committed
system.cpu0.commit.committedOps              17943323                       # Number of ops (including micro ops) committed
system.cpu0.commit.committed_per_cycle::samples      9830092                       # Number of insts commited each cycle
system.cpu0.commit.committed_per_cycle::mean     1.825346                       # Number of insts commited each cycle
system.cpu0.commit.committed_per_cycle::stdev     2.649716                       # Number of insts commited each cycle
system.cpu0.commit.committed_per_cycle::underflows            0      0.00%      0.00% # Number of insts commited each cycle
system.cpu0.commit.committed_per_cycle::0      5336818     54.29%     54.29% # Number of insts commited each cycle
system.cpu0.commit.committed_per_cycle::1       894955      9.10%     63.39% # Number of insts commited each cycle
system.cpu0.commit.committed_per_cycle::2       662752      6.74%     70.14% # Number of insts commited each cycle
system.cpu0.commit.committed_per_cycle::3      1011628     10.29%     80.43% # Number of insts commited each cycle
system.cpu0.commit.committed_per_cycle::4       424286      4.32%     84.74% # Number of insts commited each cycle
system.cpu0.commit.committed_per_cycle::5       205594      2.09%     86.84% # Number of insts commited each cycle
system.cpu0.commit.committed_per_cycle::6       107530      1.09%     87.93% # Number of insts commited each cycle
system.cpu0.commit.committed_per_cycle::7       174546      1.78%     89.71% # Number of insts commited each cycle
system.cpu0.commit.committed_per_cycle::8      1011983     10.29%    100.00% # Number of insts commited each cycle
system.cpu0.commit.committed_per_cycle::overflows            0      0.00%    100.00% # Number of insts commited each cycle
system.cpu0.commit.committed_per_cycle::min_value            0                       # Number of insts commited each cycle
system.cpu0.commit.committed_per_cycle::max_value            8                       # Number of insts commited each cycle
system.cpu0.commit.committed_per_cycle::total      9830092                       # Number of insts commited each cycle
system.cpu0.commit.fp_insts                    255296                       # Number of committed floating point instructions.
system.cpu0.commit.function_calls               96378                       # Number of function calls committed.
system.cpu0.commit.int_insts                 17781229                       # Number of committed integer instructions.
system.cpu0.commit.loads                      2386244                       # Number of loads committed
system.cpu0.commit.membars                         24                       # Number of memory barriers committed
system.cpu0.commit.op_class_0::No_OpClass        34034      0.19%      0.19% # Class of committed instruction
system.cpu0.commit.op_class_0::IntAlu        13819368     77.02%     77.21% # Class of committed instruction
system.cpu0.commit.op_class_0::IntMult          37045      0.21%     77.41% # Class of committed instruction
system.cpu0.commit.op_class_0::IntDiv              21      0.00%     77.41% # Class of committed instruction
system.cpu0.commit.op_class_0::FloatAdd         22633      0.13%     77.54% # Class of committed instruction
system.cpu0.commit.op_class_0::FloatCmp             0      0.00%     77.54% # Class of committed instruction
system.cpu0.commit.op_class_0::FloatCvt             0      0.00%     77.54% # Class of committed instruction
system.cpu0.commit.op_class_0::FloatMult            0      0.00%     77.54% # Class of committed instruction
system.cpu0.commit.op_class_0::FloatMultAcc            0      0.00%     77.54% # Class of committed instruction
system.cpu0.commit.op_class_0::FloatDiv             0      0.00%     77.54% # Class of committed instruction
system.cpu0.commit.op_class_0::FloatMisc            0      0.00%     77.54% # Class of committed instruction
system.cpu0.commit.op_class_0::FloatSqrt            0      0.00%     77.54% # Class of committed instruction
system.cpu0.commit.op_class_0::SimdAdd            374      0.00%     77.54% # Class of committed instruction
system.cpu0.commit.op_class_0::SimdAddAcc            0      0.00%     77.54% # Class of committed instruction
system.cpu0.commit.op_class_0::SimdAlu            100      0.00%     77.54% # Class of committed instruction
system.cpu0.commit.op_class_0::SimdCmp              0      0.00%     77.54% # Class of committed instruction
system.cpu0.commit.op_class_0::SimdCvt          24170      0.13%     77.68% # Class of committed instruction
system.cpu0.commit.op_class_0::SimdMisc        103481      0.58%     78.25% # Class of committed instruction
system.cpu0.commit.op_class_0::SimdMult             0      0.00%     78.25% # Class of committed instruction
system.cpu0.commit.op_class_0::SimdMultAcc            0      0.00%     78.25% # Class of committed instruction
system.cpu0.commit.op_class_0::SimdShift          186      0.00%     78.25% # Class of committed instruction
system.cpu0.commit.op_class_0::SimdShiftAcc            0      0.00%     78.25% # Class of committed instruction
system.cpu0.commit.op_class_0::SimdDiv              0      0.00%     78.25% # Class of committed instruction
system.cpu0.commit.op_class_0::SimdSqrt             0      0.00%     78.25% # Class of committed instruction
system.cpu0.commit.op_class_0::SimdFloatAdd            0      0.00%     78.25% # Class of committed instruction
system.cpu0.commit.op_class_0::SimdFloatAlu            0      0.00%     78.25% # Class of committed instruction
system.cpu0.commit.op_class_0::SimdFloatCmp            0      0.00%     78.25% # Class of committed instruction
system.cpu0.commit.op_class_0::SimdFloatCvt            0      0.00%     78.25% # Class of committed instruction
system.cpu0.commit.op_class_0::SimdFloatDiv            0      0.00%     78.25% # Class of committed instruction
system.cpu0.commit.op_class_0::SimdFloatMisc            0      0.00%     78.25% # Class of committed instruction
system.cpu0.commit.op_class_0::SimdFloatMult            0      0.00%     78.25% # Class of committed instruction
system.cpu0.commit.op_class_0::SimdFloatMultAcc            0      0.00%     78.25% # Class of committed instruction
system.cpu0.commit.op_class_0::SimdFloatSqrt            0      0.00%     78.25% # Class of committed instruction
system.cpu0.commit.op_class_0::SimdReduceAdd            0      0.00%     78.25% # Class of committed instruction
system.cpu0.commit.op_class_0::SimdReduceAlu            0      0.00%     78.25% # Class of committed instruction
system.cpu0.commit.op_class_0::SimdReduceCmp            0      0.00%     78.25% # Class of committed instruction
system.cpu0.commit.op_class_0::SimdFloatReduceAdd            0      0.00%     78.25% # Class of committed instruction
system.cpu0.commit.op_class_0::SimdFloatReduceCmp            0      0.00%     78.25% # Class of committed instruction
system.cpu0.commit.op_class_0::SimdAes              0      0.00%     78.25% # Class of committed instruction
system.cpu0.commit.op_class_0::SimdAesMix            0      0.00%     78.25% # Class of committed instruction
system.cpu0.commit.op_class_0::SimdSha1Hash            0      0.00%     78.25% # Class of committed instruction
system.cpu0.commit.op_class_0::SimdSha1Hash2            0      0.00%     78.25% # Class of committed instruction
system.cpu0.commit.op_class_0::SimdSha256Hash            0      0.00%     78.25% # Class of committed instruction
system.cpu0.commit.op_class_0::SimdSha256Hash2            0      0.00%     78.25% # Class of committed instruction
system.cpu0.commit.op_class_0::SimdShaSigma2            0      0.00%     78.25% # Class of committed instruction
system.cpu0.commit.op_class_0::SimdShaSigma3            0      0.00%     78.25% # Class of committed instruction
system.cpu0.commit.op_class_0::SimdPredAlu            0      0.00%     78.25% # Class of committed instruction
system.cpu0.commit.op_class_0::MemRead        2328174     12.98%     91.23% # Class of committed instruction
system.cpu0.commit.op_class_0::MemWrite       1481212      8.25%     99.48% # Class of committed instruction
system.cpu0.commit.op_class_0::FloatMemRead        58070      0.32%     99.81% # Class of committed instruction
system.cpu0.commit.op_class_0::FloatMemWrite        34455      0.19%    100.00% # Class of committed instruction
system.cpu0.commit.op_class_0::IprAccess            0      0.00%    100.00% # Class of committed instruction
system.cpu0.commit.op_class_0::InstPrefetch            0      0.00%    100.00% # Class of committed instruction
system.cpu0.commit.op_class_0::total         17943323                       # Class of committed instruction
system.cpu0.commit.refs                       3901911                       # Number of memory references committed
system.cpu0.commit.swp_count                        0                       # Number of s/w prefetches committed
system.cpu0.commit.vec_insts                        0                       # Number of committed Vector instructions.
system.cpu0.committedInsts                   10000000                       # Number of Instructions Simulated
system.cpu0.committedOps                     17943323                       # Number of Ops (including micro ops) Simulated
system.cpu0.cpi                              1.012221                       # CPI: Cycles Per Instruction
system.cpu0.cpi_total                        1.012221                       # CPI: Total CPI of All Threads
system.cpu0.dcache.ReadReq_accesses::.cpu0.data      1840013                       # number of ReadReq accesses(hits+misses)
system.cpu0.dcache.ReadReq_accesses::total      1840013                       # number of ReadReq accesses(hits+misses)
system.cpu0.dcache.ReadReq_avg_miss_latency::.cpu0.data 161566.678868                       # average ReadReq miss latency
system.cpu0.dcache.ReadReq_avg_miss_latency::total 161566.678868                       # average ReadReq miss latency
system.cpu0.dcache.ReadReq_avg_mshr_miss_latency::.cpu0.data 164160.988644                       # average ReadReq mshr miss latency
system.cpu0.dcache.ReadReq_avg_mshr_miss_latency::total 164160.988644                       # average ReadReq mshr miss latency
system.cpu0.dcache.ReadReq_hits::.cpu0.data      1823621                       # number of ReadReq hits
system.cpu0.dcache.ReadReq_hits::total        1823621                       # number of ReadReq hits
system.cpu0.dcache.ReadReq_miss_latency::.cpu0.data   2648401000                       # number of ReadReq miss cycles
system.cpu0.dcache.ReadReq_miss_latency::total   2648401000                       # number of ReadReq miss cycles
system.cpu0.dcache.ReadReq_miss_rate::.cpu0.data     0.008909                       # miss rate for ReadReq accesses
system.cpu0.dcache.ReadReq_miss_rate::total     0.008909                       # miss rate for ReadReq accesses
system.cpu0.dcache.ReadReq_misses::.cpu0.data        16392                       # number of ReadReq misses
system.cpu0.dcache.ReadReq_misses::total        16392                       # number of ReadReq misses
system.cpu0.dcache.ReadReq_mshr_hits::.cpu0.data         5913                       # number of ReadReq MSHR hits
system.cpu0.dcache.ReadReq_mshr_hits::total         5913                       # number of ReadReq MSHR hits
system.cpu0.dcache.ReadReq_mshr_miss_latency::.cpu0.data   1720243000                       # number of ReadReq MSHR miss cycles
system.cpu0.dcache.ReadReq_mshr_miss_latency::total   1720243000                       # number of ReadReq MSHR miss cycles
system.cpu0.dcache.ReadReq_mshr_miss_rate::.cpu0.data     0.005695                       # mshr miss rate for ReadReq accesses
system.cpu0.dcache.ReadReq_mshr_miss_rate::total     0.005695                       # mshr miss rate for ReadReq accesses
system.cpu0.dcache.ReadReq_mshr_misses::.cpu0.data        10479                       # number of ReadReq MSHR misses
system.cpu0.dcache.ReadReq_mshr_misses::total        10479                       # number of ReadReq MSHR misses
system.cpu0.dcache.WriteReq_accesses::.cpu0.data      1515646                       # number of WriteReq accesses(hits+misses)
system.cpu0.dcache.WriteReq_accesses::total      1515646                       # number of WriteReq accesses(hits+misses)
system.cpu0.dcache.WriteReq_avg_miss_latency::.cpu0.data 154018.093721                       # average WriteReq miss latency
system.cpu0.dcache.WriteReq_avg_miss_latency::total 154018.093721                       # average WriteReq miss latency
system.cpu0.dcache.WriteReq_avg_mshr_miss_latency::.cpu0.data 166394.940080                       # average WriteReq mshr miss latency
system.cpu0.dcache.WriteReq_avg_mshr_miss_latency::total 166394.940080                       # average WriteReq mshr miss latency
system.cpu0.dcache.WriteReq_hits::.cpu0.data      1486133                       # number of WriteReq hits
system.cpu0.dcache.WriteReq_hits::total       1486133                       # number of WriteReq hits
system.cpu0.dcache.WriteReq_miss_latency::.cpu0.data   4545536000                       # number of WriteReq miss cycles
system.cpu0.dcache.WriteReq_miss_latency::total   4545536000                       # number of WriteReq miss cycles
system.cpu0.dcache.WriteReq_miss_rate::.cpu0.data     0.019472                       # miss rate for WriteReq accesses
system.cpu0.dcache.WriteReq_miss_rate::total     0.019472                       # miss rate for WriteReq accesses
system.cpu0.dcache.WriteReq_misses::.cpu0.data        29513                       # number of WriteReq misses
system.cpu0.dcache.WriteReq_misses::total        29513                       # number of WriteReq misses
system.cpu0.dcache.WriteReq_mshr_hits::.cpu0.data         3228                       # number of WriteReq MSHR hits
system.cpu0.dcache.WriteReq_mshr_hits::total         3228                       # number of WriteReq MSHR hits
system.cpu0.dcache.WriteReq_mshr_miss_latency::.cpu0.data   4373691000                       # number of WriteReq MSHR miss cycles
system.cpu0.dcache.WriteReq_mshr_miss_latency::total   4373691000                       # number of WriteReq MSHR miss cycles
system.cpu0.dcache.WriteReq_mshr_miss_rate::.cpu0.data     0.017342                       # mshr miss rate for WriteReq accesses
system.cpu0.dcache.WriteReq_mshr_miss_rate::total     0.017342                       # mshr miss rate for WriteReq accesses
system.cpu0.dcache.WriteReq_mshr_misses::.cpu0.data        26285                       # number of WriteReq MSHR misses
system.cpu0.dcache.WriteReq_mshr_misses::total        26285                       # number of WriteReq MSHR misses
system.cpu0.dcache.avg_blocked_cycles::no_mshrs    54.357143                       # average number of cycles each access was blocked
system.cpu0.dcache.avg_blocked_cycles::no_targets          nan                       # average number of cycles each access was blocked
system.cpu0.dcache.blocked::no_mshrs               42                       # number of cycles access was blocked
system.cpu0.dcache.blocked::no_targets              0                       # number of cycles access was blocked
system.cpu0.dcache.blocked_cycles::no_mshrs         2283                       # number of cycles access was blocked
system.cpu0.dcache.blocked_cycles::no_targets            0                       # number of cycles access was blocked
system.cpu0.dcache.demand_accesses::.cpu0.data      3355659                       # number of demand (read+write) accesses
system.cpu0.dcache.demand_accesses::total      3355659                       # number of demand (read+write) accesses
system.cpu0.dcache.demand_avg_miss_latency::.cpu0.data 156713.582398                       # average overall miss latency
system.cpu0.dcache.demand_avg_miss_latency::total 156713.582398                       # average overall miss latency
system.cpu0.dcache.demand_avg_mshr_miss_latency::.cpu0.data 165758.187357                       # average overall mshr miss latency
system.cpu0.dcache.demand_avg_mshr_miss_latency::total 165758.187357                       # average overall mshr miss latency
system.cpu0.dcache.demand_hits::.cpu0.data      3309754                       # number of demand (read+write) hits
system.cpu0.dcache.demand_hits::total         3309754                       # number of demand (read+write) hits
system.cpu0.dcache.demand_miss_latency::.cpu0.data   7193937000                       # number of demand (read+write) miss cycles
system.cpu0.dcache.demand_miss_latency::total   7193937000                       # number of demand (read+write) miss cycles
system.cpu0.dcache.demand_miss_rate::.cpu0.data     0.013680                       # miss rate for demand accesses
system.cpu0.dcache.demand_miss_rate::total     0.013680                       # miss rate for demand accesses
system.cpu0.dcache.demand_misses::.cpu0.data        45905                       # number of demand (read+write) misses
system.cpu0.dcache.demand_misses::total         45905                       # number of demand (read+write) misses
system.cpu0.dcache.demand_mshr_hits::.cpu0.data         9141                       # number of demand (read+write) MSHR hits
system.cpu0.dcache.demand_mshr_hits::total         9141                       # number of demand (read+write) MSHR hits
system.cpu0.dcache.demand_mshr_miss_latency::.cpu0.data   6093934000                       # number of demand (read+write) MSHR miss cycles
system.cpu0.dcache.demand_mshr_miss_latency::total   6093934000                       # number of demand (read+write) MSHR miss cycles
system.cpu0.dcache.demand_mshr_miss_rate::.cpu0.data     0.010956                       # mshr miss rate for demand accesses
system.cpu0.dcache.demand_mshr_miss_rate::total     0.010956                       # mshr miss rate for demand accesses
system.cpu0.dcache.demand_mshr_misses::.cpu0.data        36764                       # number of demand (read+write) MSHR misses
system.cpu0.dcache.demand_mshr_misses::total        36764                       # number of demand (read+write) MSHR misses
system.cpu0.dcache.overall_accesses::.cpu0.data      3355659                       # number of overall (read+write) accesses
system.cpu0.dcache.overall_accesses::total      3355659                       # number of overall (read+write) accesses
system.cpu0.dcache.overall_avg_miss_latency::.cpu0.data 156713.582398                       # average overall miss latency
system.cpu0.dcache.overall_avg_miss_latency::total 156713.582398                       # average overall miss latency
system.cpu0.dcache.overall_avg_mshr_miss_latency::.cpu0.data 165758.187357                       # average overall mshr miss latency
system.cpu0.dcache.overall_avg_mshr_miss_latency::total 165758.187357                       # average overall mshr miss latency
system.cpu0.dcache.overall_hits::.cpu0.data      3309754                       # number of overall hits
system.cpu0.dcache.overall_hits::total        3309754                       # number of overall hits
system.cpu0.dcache.overall_miss_latency::.cpu0.data   7193937000                       # number of overall miss cycles
system.cpu0.dcache.overall_miss_latency::total   7193937000                       # number of overall miss cycles
system.cpu0.dcache.overall_miss_rate::.cpu0.data     0.013680                       # miss rate for overall accesses
system.cpu0.dcache.overall_miss_rate::total     0.013680                       # miss rate for overall accesses
system.cpu0.dcache.overall_misses::.cpu0.data        45905                       # number of overall misses
system.cpu0.dcache.overall_misses::total        45905                       # number of overall misses
system.cpu0.dcache.overall_mshr_hits::.cpu0.data         9141                       # number of overall MSHR hits
system.cpu0.dcache.overall_mshr_hits::total         9141                       # number of overall MSHR hits
system.cpu0.dcache.overall_mshr_miss_latency::.cpu0.data   6093934000                       # number of overall MSHR miss cycles
system.cpu0.dcache.overall_mshr_miss_latency::total   6093934000                       # number of overall MSHR miss cycles
system.cpu0.dcache.overall_mshr_miss_rate::.cpu0.data     0.010956                       # mshr miss rate for overall accesses
system.cpu0.dcache.overall_mshr_miss_rate::total     0.010956                       # mshr miss rate for overall accesses
system.cpu0.dcache.overall_mshr_misses::.cpu0.data        36764                       # number of overall MSHR misses
system.cpu0.dcache.overall_mshr_misses::total        36764                       # number of overall MSHR misses
system.cpu0.dcache.pwrStateResidencyTicks::UNDEFINED  10122210000                       # Cumulative time (in ticks) in various power states
system.cpu0.dcache.replacements                 35739                       # number of replacements
system.cpu0.dcache.tags.age_task_id_blocks_1024::0           34                       # Occupied blocks per task id
system.cpu0.dcache.tags.age_task_id_blocks_1024::1          296                       # Occupied blocks per task id
system.cpu0.dcache.tags.age_task_id_blocks_1024::2          659                       # Occupied blocks per task id
system.cpu0.dcache.tags.age_task_id_blocks_1024::3            6                       # Occupied blocks per task id
system.cpu0.dcache.tags.age_task_id_blocks_1024::4           29                       # Occupied blocks per task id
system.cpu0.dcache.tags.avg_refs            91.029486                       # Average number of references to valid blocks.
system.cpu0.dcache.tags.data_accesses         6748081                       # Number of data accesses
system.cpu0.dcache.tags.occ_blocks::.cpu0.data  1005.843920                       # Average occupied blocks per requestor
system.cpu0.dcache.tags.occ_percent::.cpu0.data     0.982269                       # Average percentage of cache occupancy
system.cpu0.dcache.tags.occ_percent::total     0.982269                       # Average percentage of cache occupancy
system.cpu0.dcache.tags.occ_task_id_blocks::1024         1024                       # Occupied blocks per task id
system.cpu0.dcache.tags.occ_task_id_percent::1024            1                       # Percentage of cache occupancy per task id
system.cpu0.dcache.tags.pwrStateResidencyTicks::UNDEFINED  10122210000                       # Cumulative time (in ticks) in various power states
system.cpu0.dcache.tags.sampled_refs            36763                       # Sample count of references to valid blocks.
system.cpu0.dcache.tags.tag_accesses          6748081                       # Number of tag accesses
system.cpu0.dcache.tags.tagsinuse         1005.843920                       # Cycle average of tags in use
system.cpu0.dcache.tags.total_refs            3346517                       # Total number of references to valid blocks.
system.cpu0.dcache.tags.warmup_cycle           222000                       # Cycle when the warmup percentage was hit.
system.cpu0.dcache.writebacks::.writebacks        34672                       # number of writebacks
system.cpu0.dcache.writebacks::total            34672                       # number of writebacks
system.cpu0.decode.BlockedCycles              4458236                       # Number of cycles decode is blocked
system.cpu0.decode.DecodedInsts              19359041                       # Number of instructions handled by decode
system.cpu0.decode.IdleCycles                 2488002                       # Number of cycles decode is idle
system.cpu0.decode.RunCycles                  2773739                       # Number of cycles decode is running
system.cpu0.decode.SquashCycles                 40487                       # Number of cycles decode is squashing
system.cpu0.decode.UnblockCycles               187711                       # Number of cycles decode is unblocking
system.cpu0.dtb.rdAccesses                    2421302                       # TLB accesses on read requests
system.cpu0.dtb.rdMisses                          199                       # TLB misses on read requests
system.cpu0.dtb.walker.pwrStateResidencyTicks::UNDEFINED  10122210000                       # Cumulative time (in ticks) in various power states
system.cpu0.dtb.wrAccesses                    1548332                       # TLB accesses on write requests
system.cpu0.dtb.wrMisses                          618                       # TLB misses on write requests
system.cpu0.fetch.Branches                    2209330                       # Number of branches that fetch encountered
system.cpu0.fetch.CacheLines                  1419758                       # Number of cache lines fetched
system.cpu0.fetch.Cycles                      7228716                       # Number of cycles fetch has run and was not squashing or blocked
system.cpu0.fetch.IcacheSquashes                10162                       # Number of outstanding Icache misses that were squashed
system.cpu0.fetch.IcacheWaitRetryStallCycles           14                       # Number of stall cycles due to full MSHR
system.cpu0.fetch.Insts                      11052314                       # Number of instructions fetch has processed
system.cpu0.fetch.MiscStallCycles                 103                       # Number of cycles fetch has spent waiting on interrupts, or bad addresses, or out of MSHRs
system.cpu0.fetch.PendingQuiesceStallCycles            7                       # Number of stall cycles due to pending quiesce instructions
system.cpu0.fetch.PendingTrapStallCycles          593                       # Number of stall cycles due to pending traps
system.cpu0.fetch.SquashCycles                  80974                       # Number of cycles fetch has spent squashing
system.cpu0.fetch.branchRate                 0.218266                       # Number of branch fetches per cycle
system.cpu0.fetch.icacheStallCycles           2678255                       # Number of cycles fetch is stalled on an Icache miss
system.cpu0.fetch.predictedBranches            934551                       # Number of branches that fetch has predicted taken
system.cpu0.fetch.rate                       1.091887                       # Number of inst fetches per cycle
system.cpu0.fetch.rateDist::samples           9948175                       # Number of instructions fetched each cycle (Total)
system.cpu0.fetch.rateDist::mean             2.001740                       # Number of instructions fetched each cycle (Total)
system.cpu0.fetch.rateDist::stdev            3.205071                       # Number of instructions fetched each cycle (Total)
system.cpu0.fetch.rateDist::underflows              0      0.00%      0.00% # Number of instructions fetched each cycle (Total)
system.cpu0.fetch.rateDist::0                 6795774     68.31%     68.31% # Number of instructions fetched each cycle (Total)
system.cpu0.fetch.rateDist::1                  137048      1.38%     69.69% # Number of instructions fetched each cycle (Total)
system.cpu0.fetch.rateDist::2                  187672      1.89%     71.58% # Number of instructions fetched each cycle (Total)
system.cpu0.fetch.rateDist::3                  245539      2.47%     74.04% # Number of instructions fetched each cycle (Total)
system.cpu0.fetch.rateDist::4                  162028      1.63%     75.67% # Number of instructions fetched each cycle (Total)
system.cpu0.fetch.rateDist::5                  197844      1.99%     77.66% # Number of instructions fetched each cycle (Total)
system.cpu0.fetch.rateDist::6                  227809      2.29%     79.95% # Number of instructions fetched each cycle (Total)
system.cpu0.fetch.rateDist::7                  295228      2.97%     82.92% # Number of instructions fetched each cycle (Total)
system.cpu0.fetch.rateDist::8                 1699233     17.08%    100.00% # Number of instructions fetched each cycle (Total)
system.cpu0.fetch.rateDist::overflows               0      0.00%    100.00% # Number of instructions fetched each cycle (Total)
system.cpu0.fetch.rateDist::min_value               0                       # Number of instructions fetched each cycle (Total)
system.cpu0.fetch.rateDist::max_value               8                       # Number of instructions fetched each cycle (Total)
system.cpu0.fetch.rateDist::total             9948175                       # Number of instructions fetched each cycle (Total)
system.cpu0.fp_regfile_reads                   317747                       # number of floating regfile reads
system.cpu0.fp_regfile_writes                  204073                       # number of floating regfile writes
system.cpu0.icache.ReadReq_accesses::.cpu0.inst      1419758                       # number of ReadReq accesses(hits+misses)
system.cpu0.icache.ReadReq_accesses::total      1419758                       # number of ReadReq accesses(hits+misses)
system.cpu0.icache.ReadReq_avg_miss_latency::.cpu0.inst 30452.583639                       # average ReadReq miss latency
system.cpu0.icache.ReadReq_avg_miss_latency::total 30452.583639                       # average ReadReq miss latency
system.cpu0.icache.ReadReq_avg_mshr_miss_latency::.cpu0.inst 28263.807943                       # average ReadReq mshr miss latency
system.cpu0.icache.ReadReq_avg_mshr_miss_latency::total 28263.807943                       # average ReadReq mshr miss latency
system.cpu0.icache.ReadReq_hits::.cpu0.inst      1367719                       # number of ReadReq hits
system.cpu0.icache.ReadReq_hits::total        1367719                       # number of ReadReq hits
system.cpu0.icache.ReadReq_miss_latency::.cpu0.inst   1584722000                       # number of ReadReq miss cycles
system.cpu0.icache.ReadReq_miss_latency::total   1584722000                       # number of ReadReq miss cycles
system.cpu0.icache.ReadReq_miss_rate::.cpu0.inst     0.036653                       # miss rate for ReadReq accesses
system.cpu0.icache.ReadReq_miss_rate::total     0.036653                       # miss rate for ReadReq accesses
system.cpu0.icache.ReadReq_misses::.cpu0.inst        52039                       # number of ReadReq misses
system.cpu0.icache.ReadReq_misses::total        52039                       # number of ReadReq misses
system.cpu0.icache.ReadReq_mshr_hits::.cpu0.inst          221                       # number of ReadReq MSHR hits
system.cpu0.icache.ReadReq_mshr_hits::total          221                       # number of ReadReq MSHR hits
system.cpu0.icache.ReadReq_mshr_miss_latency::.cpu0.inst   1464574000                       # number of ReadReq MSHR miss cycles
system.cpu0.icache.ReadReq_mshr_miss_latency::total   1464574000                       # number of ReadReq MSHR miss cycles
system.cpu0.icache.ReadReq_mshr_miss_rate::.cpu0.inst     0.036498                       # mshr miss rate for ReadReq accesses
system.cpu0.icache.ReadReq_mshr_miss_rate::total     0.036498                       # mshr miss rate for ReadReq accesses
system.cpu0.icache.ReadReq_mshr_misses::.cpu0.inst        51818                       # number of ReadReq MSHR misses
system.cpu0.icache.ReadReq_mshr_misses::total        51818                       # number of ReadReq MSHR misses
system.cpu0.icache.avg_blocked_cycles::no_mshrs           19                       # average number of cycles each access was blocked
system.cpu0.icache.avg_blocked_cycles::no_targets          nan                       # average number of cycles each access was blocked
system.cpu0.icache.blocked::no_mshrs                2                       # number of cycles access was blocked
system.cpu0.icache.blocked::no_targets              0                       # number of cycles access was blocked
system.cpu0.icache.blocked_cycles::no_mshrs           38                       # number of cycles access was blocked
system.cpu0.icache.blocked_cycles::no_targets            0                       # number of cycles access was blocked
system.cpu0.icache.demand_accesses::.cpu0.inst      1419758                       # number of demand (read+write) accesses
system.cpu0.icache.demand_accesses::total      1419758                       # number of demand (read+write) accesses
system.cpu0.icache.demand_avg_miss_latency::.cpu0.inst 30452.583639                       # average overall miss latency
system.cpu0.icache.demand_avg_miss_latency::total 30452.583639                       # average overall miss latency
system.cpu0.icache.demand_avg_mshr_miss_latency::.cpu0.inst 28263.807943                       # average overall mshr miss latency
system.cpu0.icache.demand_avg_mshr_miss_latency::total 28263.807943                       # average overall mshr miss latency
system.cpu0.icache.demand_hits::.cpu0.inst      1367719                       # number of demand (read+write) hits
system.cpu0.icache.demand_hits::total         1367719                       # number of demand (read+write) hits
system.cpu0.icache.demand_miss_latency::.cpu0.inst   1584722000                       # number of demand (read+write) miss cycles
system.cpu0.icache.demand_miss_latency::total   1584722000                       # number of demand (read+write) miss cycles
system.cpu0.icache.demand_miss_rate::.cpu0.inst     0.036653                       # miss rate for demand accesses
system.cpu0.icache.demand_miss_rate::total     0.036653                       # miss rate for demand accesses
system.cpu0.icache.demand_misses::.cpu0.inst        52039                       # number of demand (read+write) misses
system.cpu0.icache.demand_misses::total         52039                       # number of demand (read+write) misses
system.cpu0.icache.demand_mshr_hits::.cpu0.inst          221                       # number of demand (read+write) MSHR hits
system.cpu0.icache.demand_mshr_hits::total          221                       # number of demand (read+write) MSHR hits
system.cpu0.icache.demand_mshr_miss_latency::.cpu0.inst   1464574000                       # number of demand (read+write) MSHR miss cycles
system.cpu0.icache.demand_mshr_miss_latency::total   1464574000                       # number of demand (read+write) MSHR miss cycles
system.cpu0.icache.demand_mshr_miss_rate::.cpu0.inst     0.036498                       # mshr miss rate for demand accesses
system.cpu0.icache.demand_mshr_miss_rate::total     0.036498                       # mshr miss rate for demand accesses
system.cpu0.icache.demand_mshr_misses::.cpu0.inst        51818                       # number of demand (read+write) MSHR misses
system.cpu0.icache.demand_mshr_misses::total        51818                       # number of demand (read+write) MSHR misses
system.cpu0.icache.overall_accesses::.cpu0.inst      1419758                       # number of overall (read+write) accesses
system.cpu0.icache.overall_accesses::total      1419758                       # number of overall (read+write) accesses
system.cpu0.icache.overall_avg_miss_latency::.cpu0.inst 30452.583639                       # average overall miss latency
system.cpu0.icache.overall_avg_miss_latency::total 30452.583639                       # average overall miss latency
system.cpu0.icache.overall_avg_mshr_miss_latency::.cpu0.inst 28263.807943                       # average overall mshr miss latency
system.cpu0.icache.overall_avg_mshr_miss_latency::total 28263.807943                       # average overall mshr miss latency
system.cpu0.icache.overall_hits::.cpu0.inst      1367719                       # number of overall hits
system.cpu0.icache.overall_hits::total        1367719                       # number of overall hits
system.cpu0.icache.overall_miss_latency::.cpu0.inst   1584722000                       # number of overall miss cycles
system.cpu0.icache.overall_miss_latency::total   1584722000                       # number of overall miss cycles
system.cpu0.icache.overall_miss_rate::.cpu0.inst     0.036653                       # miss rate for overall accesses
system.cpu0.icache.overall_miss_rate::total     0.036653                       # miss rate for overall accesses
system.cpu0.icache.overall_misses::.cpu0.inst        52039                       # number of overall misses
system.cpu0.icache.overall_misses::total        52039                       # number of overall misses
system.cpu0.icache.overall_mshr_hits::.cpu0.inst          221                       # number of overall MSHR hits
system.cpu0.icache.overall_mshr_hits::total          221                       # number of overall MSHR hits
system.cpu0.icache.overall_mshr_miss_latency::.cpu0.inst   1464574000                       # number of overall MSHR miss cycles
system.cpu0.icache.overall_mshr_miss_latency::total   1464574000                       # number of overall MSHR miss cycles
system.cpu0.icache.overall_mshr_miss_rate::.cpu0.inst     0.036498                       # mshr miss rate for overall accesses
system.cpu0.icache.overall_mshr_miss_rate::total     0.036498                       # mshr miss rate for overall accesses
system.cpu0.icache.overall_mshr_misses::.cpu0.inst        51818                       # number of overall MSHR misses
system.cpu0.icache.overall_mshr_misses::total        51818                       # number of overall MSHR misses
system.cpu0.icache.pwrStateResidencyTicks::UNDEFINED  10122210000                       # Cumulative time (in ticks) in various power states
system.cpu0.icache.replacements                 51561                       # number of replacements
system.cpu0.icache.tags.age_task_id_blocks_1024::0            6                       # Occupied blocks per task id
system.cpu0.icache.tags.age_task_id_blocks_1024::3           24                       # Occupied blocks per task id
system.cpu0.icache.tags.age_task_id_blocks_1024::4          226                       # Occupied blocks per task id
system.cpu0.icache.tags.avg_refs            27.395179                       # Average number of references to valid blocks.
system.cpu0.icache.tags.data_accesses         2891333                       # Number of data accesses
system.cpu0.icache.tags.occ_blocks::.cpu0.inst   255.446739                       # Average occupied blocks per requestor
system.cpu0.icache.tags.occ_percent::.cpu0.inst     0.997839                       # Average percentage of cache occupancy
system.cpu0.icache.tags.occ_percent::total     0.997839                       # Average percentage of cache occupancy
system.cpu0.icache.tags.occ_task_id_blocks::1024          256                       # Occupied blocks per task id
system.cpu0.icache.tags.occ_task_id_percent::1024            1                       # Percentage of cache occupancy per task id
system.cpu0.icache.tags.pwrStateResidencyTicks::UNDEFINED  10122210000                       # Cumulative time (in ticks) in various power states
system.cpu0.icache.tags.sampled_refs            51817                       # Sample count of references to valid blocks.
system.cpu0.icache.tags.tag_accesses          2891333                       # Number of tag accesses
system.cpu0.icache.tags.tagsinuse          255.446739                       # Cycle average of tags in use
system.cpu0.icache.tags.total_refs            1419536                       # Total number of references to valid blocks.
system.cpu0.icache.tags.warmup_cycle           107000                       # Cycle when the warmup percentage was hit.
system.cpu0.idleCycles                         174036                       # Total number of cycles that the CPU has spent unscheduled due to idling
system.cpu0.iew.branchMispredicts               49179                       # Number of branch mispredicts detected at execute
system.cpu0.iew.exec_branches                 2024260                       # Number of branches executed
system.cpu0.iew.exec_nop                            0                       # number of nop insts executed
system.cpu0.iew.exec_rate                    1.823072                       # Inst execution rate
system.cpu0.iew.exec_refs                     3968338                       # number of memory reference insts executed
system.cpu0.iew.exec_stores                   1548327                       # Number of stores executed
system.cpu0.iew.exec_swp                            0                       # number of swp insts executed
system.cpu0.iew.iewBlockCycles                  96097                       # Number of cycles IEW is blocking
system.cpu0.iew.iewDispLoadInsts              2438888                       # Number of dispatched load instructions
system.cpu0.iew.iewDispNonSpecInsts                89                       # Number of dispatched non-speculative instructions
system.cpu0.iew.iewDispSquashedInsts               85                       # Number of squashed instructions skipped by dispatch
system.cpu0.iew.iewDispStoreInsts             1584322                       # Number of dispatched store instructions
system.cpu0.iew.iewDispatchedInsts           18725827                       # Number of instructions dispatched to IQ
system.cpu0.iew.iewExecLoadInsts              2420011                       # Number of load instructions executed
system.cpu0.iew.iewExecSquashedInsts            68601                       # Number of squashed instructions skipped in execute
system.cpu0.iew.iewExecutedInsts             18453521                       # Number of executed instructions
system.cpu0.iew.iewIQFullEvents                   331                       # Number of times the IQ has become full, causing a stall
system.cpu0.iew.iewIdleCycles                       0                       # Number of cycles IEW is idle
system.cpu0.iew.iewLSQFullEvents                41367                       # Number of times the LSQ has become full, causing a stall
system.cpu0.iew.iewSquashCycles                 40487                       # Number of cycles IEW is squashing
system.cpu0.iew.iewUnblockCycles                41720                       # Number of cycles IEW is unblocking
system.cpu0.iew.lsq.thread0.blockedLoads            0                       # Number of blocked loads due to partial load-store forwarding
system.cpu0.iew.lsq.thread0.cacheBlocked           32                       # Number of times an access to memory failed due to the cache being blocked
system.cpu0.iew.lsq.thread0.forwLoads          581203                       # Number of loads that had data forwarded from stores
system.cpu0.iew.lsq.thread0.ignoredResponses           14                       # Number of memory responses ignored because the instruction is squashed
system.cpu0.iew.lsq.thread0.invAddrLoads            0                       # Number of loads ignored due to an invalid address
system.cpu0.iew.lsq.thread0.invAddrSwpfs            0                       # Number of software prefetches ignored due to an invalid address
system.cpu0.iew.lsq.thread0.memOrderViolation          271                       # Number of memory ordering violations
system.cpu0.iew.lsq.thread0.rescheduledLoads            4                       # Number of loads that were rescheduled
system.cpu0.iew.lsq.thread0.squashedLoads        52640                       # Number of loads squashed
system.cpu0.iew.lsq.thread0.squashedStores        68653                       # Number of stores squashed
system.cpu0.iew.memOrderViolationEvents           271                       # Number of memory order violations
system.cpu0.iew.predictedNotTakenIncorrect        46213                       # Number of branches that were predicted not taken incorrectly
system.cpu0.iew.predictedTakenIncorrect          2966                       # Number of branches that were predicted taken incorrectly
system.cpu0.iew.wb_consumers                 20629758                       # num instructions consuming a value
system.cpu0.iew.wb_count                     18434695                       # cumulative count of insts written-back
system.cpu0.iew.wb_fanout                    0.633100                       # average fanout of values written-back
system.cpu0.iew.wb_producers                 13060691                       # num instructions producing a value
system.cpu0.iew.wb_rate                      1.821212                       # insts written-back per cycle
system.cpu0.iew.wb_sent                      18444080                       # cumulative count of insts sent to commit
system.cpu0.int_regfile_reads                28165782                       # number of integer regfile reads
system.cpu0.int_regfile_writes               14646894                       # number of integer regfile writes
system.cpu0.interrupts.clk_domain.clock         16000                       # Clock period in ticks
system.cpu0.interrupts.pwrStateResidencyTicks::UNDEFINED  10122210000                       # Cumulative time (in ticks) in various power states
system.cpu0.ipc                              0.987926                       # IPC: Instructions Per Cycle
system.cpu0.ipc_total                        0.987926                       # IPC: Total IPC of All Threads
system.cpu0.iq.FU_type_0::No_OpClass            70294      0.38%      0.38% # Type of FU issued
system.cpu0.iq.FU_type_0::IntAlu             14259245     76.98%     77.36% # Type of FU issued
system.cpu0.iq.FU_type_0::IntMult               39662      0.21%     77.58% # Type of FU issued
system.cpu0.iq.FU_type_0::IntDiv                   24      0.00%     77.58% # Type of FU issued
system.cpu0.iq.FU_type_0::FloatAdd              22639      0.12%     77.70% # Type of FU issued
system.cpu0.iq.FU_type_0::FloatCmp                  0      0.00%     77.70% # Type of FU issued
system.cpu0.iq.FU_type_0::FloatCvt                  0      0.00%     77.70% # Type of FU issued
system.cpu0.iq.FU_type_0::FloatMult                 0      0.00%     77.70% # Type of FU issued
system.cpu0.iq.FU_type_0::FloatMultAcc              0      0.00%     77.70% # Type of FU issued
system.cpu0.iq.FU_type_0::FloatDiv                  0      0.00%     77.70% # Type of FU issued
system.cpu0.iq.FU_type_0::FloatMisc                 0      0.00%     77.70% # Type of FU issued
system.cpu0.iq.FU_type_0::FloatSqrt                 0      0.00%     77.70% # Type of FU issued
system.cpu0.iq.FU_type_0::SimdAdd                 378      0.00%     77.70% # Type of FU issued
system.cpu0.iq.FU_type_0::SimdAddAcc                0      0.00%     77.70% # Type of FU issued
system.cpu0.iq.FU_type_0::SimdAlu                 100      0.00%     77.70% # Type of FU issued
system.cpu0.iq.FU_type_0::SimdCmp                   0      0.00%     77.70% # Type of FU issued
system.cpu0.iq.FU_type_0::SimdCvt               27665      0.15%     77.85% # Type of FU issued
system.cpu0.iq.FU_type_0::SimdMisc             106823      0.58%     78.43% # Type of FU issued
system.cpu0.iq.FU_type_0::SimdMult                  0      0.00%     78.43% # Type of FU issued
system.cpu0.iq.FU_type_0::SimdMultAcc               0      0.00%     78.43% # Type of FU issued
system.cpu0.iq.FU_type_0::SimdShift               186      0.00%     78.43% # Type of FU issued
system.cpu0.iq.FU_type_0::SimdShiftAcc              0      0.00%     78.43% # Type of FU issued
system.cpu0.iq.FU_type_0::SimdDiv                   0      0.00%     78.43% # Type of FU issued
system.cpu0.iq.FU_type_0::SimdSqrt                  0      0.00%     78.43% # Type of FU issued
system.cpu0.iq.FU_type_0::SimdFloatAdd              0      0.00%     78.43% # Type of FU issued
system.cpu0.iq.FU_type_0::SimdFloatAlu              0      0.00%     78.43% # Type of FU issued
system.cpu0.iq.FU_type_0::SimdFloatCmp              0      0.00%     78.43% # Type of FU issued
system.cpu0.iq.FU_type_0::SimdFloatCvt              0      0.00%     78.43% # Type of FU issued
system.cpu0.iq.FU_type_0::SimdFloatDiv              0      0.00%     78.43% # Type of FU issued
system.cpu0.iq.FU_type_0::SimdFloatMisc             0      0.00%     78.43% # Type of FU issued
system.cpu0.iq.FU_type_0::SimdFloatMult             0      0.00%     78.43% # Type of FU issued
system.cpu0.iq.FU_type_0::SimdFloatMultAcc            0      0.00%     78.43% # Type of FU issued
system.cpu0.iq.FU_type_0::SimdFloatSqrt             0      0.00%     78.43% # Type of FU issued
system.cpu0.iq.FU_type_0::SimdReduceAdd             0      0.00%     78.43% # Type of FU issued
system.cpu0.iq.FU_type_0::SimdReduceAlu             0      0.00%     78.43% # Type of FU issued
system.cpu0.iq.FU_type_0::SimdReduceCmp             0      0.00%     78.43% # Type of FU issued
system.cpu0.iq.FU_type_0::SimdFloatReduceAdd            0      0.00%     78.43% # Type of FU issued
system.cpu0.iq.FU_type_0::SimdFloatReduceCmp            0      0.00%     78.43% # Type of FU issued
system.cpu0.iq.FU_type_0::SimdAes                   0      0.00%     78.43% # Type of FU issued
system.cpu0.iq.FU_type_0::SimdAesMix                0      0.00%     78.43% # Type of FU issued
system.cpu0.iq.FU_type_0::SimdSha1Hash              0      0.00%     78.43% # Type of FU issued
system.cpu0.iq.FU_type_0::SimdSha1Hash2             0      0.00%     78.43% # Type of FU issued
system.cpu0.iq.FU_type_0::SimdSha256Hash            0      0.00%     78.43% # Type of FU issued
system.cpu0.iq.FU_type_0::SimdSha256Hash2            0      0.00%     78.43% # Type of FU issued
system.cpu0.iq.FU_type_0::SimdShaSigma2             0      0.00%     78.43% # Type of FU issued
system.cpu0.iq.FU_type_0::SimdShaSigma3             0      0.00%     78.43% # Type of FU issued
system.cpu0.iq.FU_type_0::SimdPredAlu               0      0.00%     78.43% # Type of FU issued
system.cpu0.iq.FU_type_0::MemRead             2362764     12.76%     91.19% # Type of FU issued
system.cpu0.iq.FU_type_0::MemWrite            1533155      8.28%     99.46% # Type of FU issued
system.cpu0.iq.FU_type_0::FloatMemRead          64658      0.35%     99.81% # Type of FU issued
system.cpu0.iq.FU_type_0::FloatMemWrite         34532      0.19%    100.00% # Type of FU issued
system.cpu0.iq.FU_type_0::IprAccess                 0      0.00%    100.00% # Type of FU issued
system.cpu0.iq.FU_type_0::InstPrefetch              0      0.00%    100.00% # Type of FU issued
system.cpu0.iq.FU_type_0::total              18522125                       # Type of FU issued
system.cpu0.iq.fp_alu_accesses                 269472                       # Number of floating point alu accesses
system.cpu0.iq.fp_inst_queue_reads             538380                       # Number of floating instruction queue reads
system.cpu0.iq.fp_inst_queue_wakeup_accesses       265722                       # Number of floating instruction queue wakeup accesses
system.cpu0.iq.fp_inst_queue_writes            295320                       # Number of floating instruction queue writes
system.cpu0.iq.fu_busy_cnt                     257625                       # FU busy when requested
system.cpu0.iq.fu_busy_rate                  0.013909                       # FU busy rate (busy events/executed inst)
system.cpu0.iq.fu_full::No_OpClass                  0      0.00%      0.00% # attempts to use FU when none available
system.cpu0.iq.fu_full::IntAlu                 219332     85.14%     85.14% # attempts to use FU when none available
system.cpu0.iq.fu_full::IntMult                     0      0.00%     85.14% # attempts to use FU when none available
system.cpu0.iq.fu_full::IntDiv                      0      0.00%     85.14% # attempts to use FU when none available
system.cpu0.iq.fu_full::FloatAdd                    0      0.00%     85.14% # attempts to use FU when none available
system.cpu0.iq.fu_full::FloatCmp                    0      0.00%     85.14% # attempts to use FU when none available
system.cpu0.iq.fu_full::FloatCvt                    0      0.00%     85.14% # attempts to use FU when none available
system.cpu0.iq.fu_full::FloatMult                   0      0.00%     85.14% # attempts to use FU when none available
system.cpu0.iq.fu_full::FloatMultAcc                0      0.00%     85.14% # attempts to use FU when none available
system.cpu0.iq.fu_full::FloatDiv                    0      0.00%     85.14% # attempts to use FU when none available
system.cpu0.iq.fu_full::FloatMisc                   0      0.00%     85.14% # attempts to use FU when none available
system.cpu0.iq.fu_full::FloatSqrt                   0      0.00%     85.14% # attempts to use FU when none available
system.cpu0.iq.fu_full::SimdAdd                     1      0.00%     85.14% # attempts to use FU when none available
system.cpu0.iq.fu_full::SimdAddAcc                  0      0.00%     85.14% # attempts to use FU when none available
system.cpu0.iq.fu_full::SimdAlu                    12      0.00%     85.14% # attempts to use FU when none available
system.cpu0.iq.fu_full::SimdCmp                     0      0.00%     85.14% # attempts to use FU when none available
system.cpu0.iq.fu_full::SimdCvt                   604      0.23%     85.38% # attempts to use FU when none available
system.cpu0.iq.fu_full::SimdMisc                    7      0.00%     85.38% # attempts to use FU when none available
system.cpu0.iq.fu_full::SimdMult                    0      0.00%     85.38% # attempts to use FU when none available
system.cpu0.iq.fu_full::SimdMultAcc                 0      0.00%     85.38% # attempts to use FU when none available
system.cpu0.iq.fu_full::SimdShift                   0      0.00%     85.38% # attempts to use FU when none available
system.cpu0.iq.fu_full::SimdShiftAcc                0      0.00%     85.38% # attempts to use FU when none available
system.cpu0.iq.fu_full::SimdDiv                     0      0.00%     85.38% # attempts to use FU when none available
system.cpu0.iq.fu_full::SimdSqrt                    0      0.00%     85.38% # attempts to use FU when none available
system.cpu0.iq.fu_full::SimdFloatAdd                0      0.00%     85.38% # attempts to use FU when none available
system.cpu0.iq.fu_full::SimdFloatAlu                0      0.00%     85.38% # attempts to use FU when none available
system.cpu0.iq.fu_full::SimdFloatCmp                0      0.00%     85.38% # attempts to use FU when none available
system.cpu0.iq.fu_full::SimdFloatCvt                0      0.00%     85.38% # attempts to use FU when none available
system.cpu0.iq.fu_full::SimdFloatDiv                0      0.00%     85.38% # attempts to use FU when none available
system.cpu0.iq.fu_full::SimdFloatMisc               0      0.00%     85.38% # attempts to use FU when none available
system.cpu0.iq.fu_full::SimdFloatMult               0      0.00%     85.38% # attempts to use FU when none available
system.cpu0.iq.fu_full::SimdFloatMultAcc            0      0.00%     85.38% # attempts to use FU when none available
system.cpu0.iq.fu_full::SimdFloatSqrt               0      0.00%     85.38% # attempts to use FU when none available
system.cpu0.iq.fu_full::SimdReduceAdd               0      0.00%     85.38% # attempts to use FU when none available
system.cpu0.iq.fu_full::SimdReduceAlu               0      0.00%     85.38% # attempts to use FU when none available
system.cpu0.iq.fu_full::SimdReduceCmp               0      0.00%     85.38% # attempts to use FU when none available
system.cpu0.iq.fu_full::SimdFloatReduceAdd            0      0.00%     85.38% # attempts to use FU when none available
system.cpu0.iq.fu_full::SimdFloatReduceCmp            0      0.00%     85.38% # attempts to use FU when none available
system.cpu0.iq.fu_full::SimdAes                     0      0.00%     85.38% # attempts to use FU when none available
system.cpu0.iq.fu_full::SimdAesMix                  0      0.00%     85.38% # attempts to use FU when none available
system.cpu0.iq.fu_full::SimdSha1Hash                0      0.00%     85.38% # attempts to use FU when none available
system.cpu0.iq.fu_full::SimdSha1Hash2               0      0.00%     85.38% # attempts to use FU when none available
system.cpu0.iq.fu_full::SimdSha256Hash              0      0.00%     85.38% # attempts to use FU when none available
system.cpu0.iq.fu_full::SimdSha256Hash2             0      0.00%     85.38% # attempts to use FU when none available
system.cpu0.iq.fu_full::SimdShaSigma2               0      0.00%     85.38% # attempts to use FU when none available
system.cpu0.iq.fu_full::SimdShaSigma3               0      0.00%     85.38% # attempts to use FU when none available
system.cpu0.iq.fu_full::SimdPredAlu                 0      0.00%     85.38% # attempts to use FU when none available
system.cpu0.iq.fu_full::MemRead                 31787     12.34%     97.72% # attempts to use FU when none available
system.cpu0.iq.fu_full::MemWrite                 5846      2.27%     99.99% # attempts to use FU when none available
system.cpu0.iq.fu_full::FloatMemRead               12      0.00%     99.99% # attempts to use FU when none available
system.cpu0.iq.fu_full::FloatMemWrite              24      0.01%    100.00% # attempts to use FU when none available
system.cpu0.iq.fu_full::IprAccess                   0      0.00%    100.00% # attempts to use FU when none available
system.cpu0.iq.fu_full::InstPrefetch                0      0.00%    100.00% # attempts to use FU when none available
system.cpu0.iq.int_alu_accesses              18439984                       # Number of integer alu accesses
system.cpu0.iq.int_inst_queue_reads          46728261                       # Number of integer instruction queue reads
system.cpu0.iq.int_inst_queue_wakeup_accesses     18168973                       # Number of integer instruction queue wakeup accesses
system.cpu0.iq.int_inst_queue_writes         19213239                       # Number of integer instruction queue writes
system.cpu0.iq.iqInstsAdded                  18725634                       # Number of instructions added to the IQ (excludes non-spec)
system.cpu0.iq.iqInstsIssued                 18522125                       # Number of instructions issued
system.cpu0.iq.iqNonSpecInstsAdded                193                       # Number of non-speculative instructions added to the IQ
system.cpu0.iq.iqSquashedInstsExamined         782463                       # Number of squashed instructions iterated over during squash; mainly for profiling
system.cpu0.iq.iqSquashedInstsIssued            16594                       # Number of squashed instructions issued
system.cpu0.iq.iqSquashedNonSpecRemoved           131                       # Number of squashed non-spec instructions that were removed
system.cpu0.iq.iqSquashedOperandsExamined       880299                       # Number of squashed operands that are examined and possibly removed from graph
system.cpu0.iq.issued_per_cycle::samples      9948175                       # Number of insts issued each cycle
system.cpu0.iq.issued_per_cycle::mean        1.861862                       # Number of insts issued each cycle
system.cpu0.iq.issued_per_cycle::stdev       2.378248                       # Number of insts issued each cycle
system.cpu0.iq.issued_per_cycle::underflows            0      0.00%      0.00% # Number of insts issued each cycle
system.cpu0.iq.issued_per_cycle::0            5112739     51.39%     51.39% # Number of insts issued each cycle
system.cpu0.iq.issued_per_cycle::1             651651      6.55%     57.94% # Number of insts issued each cycle
system.cpu0.iq.issued_per_cycle::2             961485      9.66%     67.61% # Number of insts issued each cycle
system.cpu0.iq.issued_per_cycle::3             790029      7.94%     75.55% # Number of insts issued each cycle
system.cpu0.iq.issued_per_cycle::4             544619      5.47%     81.03% # Number of insts issued each cycle
system.cpu0.iq.issued_per_cycle::5             618930      6.22%     87.25% # Number of insts issued each cycle
system.cpu0.iq.issued_per_cycle::6             721109      7.25%     94.50% # Number of insts issued each cycle
system.cpu0.iq.issued_per_cycle::7             403267      4.05%     98.55% # Number of insts issued each cycle
system.cpu0.iq.issued_per_cycle::8             144346      1.45%    100.00% # Number of insts issued each cycle
system.cpu0.iq.issued_per_cycle::overflows            0      0.00%    100.00% # Number of insts issued each cycle
system.cpu0.iq.issued_per_cycle::min_value            0                       # Number of insts issued each cycle
system.cpu0.iq.issued_per_cycle::max_value            8                       # Number of insts issued each cycle
system.cpu0.iq.issued_per_cycle::total        9948175                       # Number of insts issued each cycle
system.cpu0.iq.rate                          1.829850                       # Inst issue rate
system.cpu0.iq.vec_alu_accesses                     0                       # Number of vector alu accesses
system.cpu0.iq.vec_inst_queue_reads                 0                       # Number of vector instruction queue reads
system.cpu0.iq.vec_inst_queue_wakeup_accesses            0                       # Number of vector instruction queue wakeup accesses
system.cpu0.iq.vec_inst_queue_writes                0                       # Number of vector instruction queue writes
system.cpu0.itb.rdAccesses                          0                       # TLB accesses on read requests
system.cpu0.itb.rdMisses                            0                       # TLB misses on read requests
system.cpu0.itb.walker.pwrStateResidencyTicks::UNDEFINED  10122210000                       # Cumulative time (in ticks) in various power states
system.cpu0.itb.wrAccesses                    1419868                       # TLB accesses on write requests
system.cpu0.itb.wrMisses                          288                       # TLB misses on write requests
system.cpu0.memDep0.conflictingLoads           177221                       # Number of conflicting loads.
system.cpu0.memDep0.conflictingStores           62712                       # Number of conflicting stores.
system.cpu0.memDep0.insertedLoads             2438888                       # Number of loads inserted to the mem dependence unit.
system.cpu0.memDep0.insertedStores            1584322                       # Number of stores inserted to the mem dependence unit.
system.cpu0.misc_regfile_reads                7996622                       # number of misc regfile reads
system.cpu0.numCycles                        10122211                       # number of cpu cycles simulated
system.cpu0.numWorkItemsCompleted                   0                       # number of work items this cpu completed
system.cpu0.numWorkItemsStarted                     0                       # number of work items this cpu started
system.cpu0.pwrStateResidencyTicks::ON    10122210000                       # Cumulative time (in ticks) in various power states
system.cpu0.rename.BlockCycles                 149332                       # Number of cycles rename is blocking
system.cpu0.rename.CommittedMaps             20394715                       # Number of HB maps that are committed
system.cpu0.rename.IQFullEvents                  3484                       # Number of times rename has blocked due to IQ full
system.cpu0.rename.IdleCycles                 2582778                       # Number of cycles rename is idle
system.cpu0.rename.LQFullEvents               1099934                       # Number of times rename has blocked due to LQ full
system.cpu0.rename.ROBFullEvents                  752                       # Number of times rename has blocked due to ROB full
system.cpu0.rename.RenameLookups             48902729                       # Number of register rename lookups that rename has made
system.cpu0.rename.RenamedInsts              19088798                       # Number of instructions processed by rename
system.cpu0.rename.RenamedOperands           21624861                       # Number of destination operands rename has renamed
system.cpu0.rename.RunCycles                  2865389                       # Number of cycles rename is running
system.cpu0.rename.SQFullEvents               3188950                       # Number of times rename has blocked due to SQ full
system.cpu0.rename.SquashCycles                 40487                       # Number of cycles rename is squashing
system.cpu0.rename.UnblockCycles              4308012                       # Number of cycles rename is unblocking
system.cpu0.rename.UndoneMaps                 1230094                       # Number of HB maps that are undone due to squashing
system.cpu0.rename.fp_rename_lookups           334426                       # Number of floating rename lookups
system.cpu0.rename.int_rename_lookups        29194303                       # Number of integer rename lookups
system.cpu0.rename.serializeStallCycles          2177                       # count of cycles rename stalled for serializing inst
system.cpu0.rename.serializingInsts                44                       # count of serializing insts renamed
system.cpu0.rename.skidInsts                   944914                       # count of insts added to the skid buffer
system.cpu0.rename.tempSerializingInsts            42                       # count of temporary serializing insts renamed
system.cpu0.rob.rob_reads                    27544040                       # The number of ROB reads
system.cpu0.rob.rob_writes                   37572601                       # The number of ROB writes
system.cpu0.timesIdled                           7025                       # Number of times that the entire CPU went into an idle state and unscheduled itself
system.cpu0.workload.numSyscalls                   26                       # Number of system calls
system.cpu1.branchPred.BTBCorrect                   0                       # Number of correct BTB predictions (this stat may not work properly.
system.cpu1.branchPred.BTBHitPct             0.000000                       # BTB Hit Percentage
system.cpu1.branchPred.BTBHits                      0                       # Number of BTB hits
system.cpu1.branchPred.BTBLookups              607362                       # Number of BTB lookups
system.cpu1.branchPred.RASInCorrect                 7                       # Number of incorrect RAS predictions.
system.cpu1.branchPred.condIncorrect            24055                       # Number of conditional branches incorrect
system.cpu1.branchPred.condPredicted           757052                       # Number of conditional branches predicted
system.cpu1.branchPred.indirectHits            374511                       # Number of indirect target hits.
system.cpu1.branchPred.indirectLookups         607362                       # Number of indirect predictor lookups.
system.cpu1.branchPred.indirectMisses          232851                       # Number of indirect misses.
system.cpu1.branchPred.lookups                 786974                       # Number of BP lookups
system.cpu1.branchPred.usedRAS                  12376                       # Number of times the RAS was used to get a target.
system.cpu1.branchPredindirectMispredicted        12664                       # Number of mispredicted indirect branches.
system.cpu1.cc_regfile_reads                  3751823                       # number of cc regfile reads
system.cpu1.cc_regfile_writes                 4935393                       # number of cc regfile writes
system.cpu1.commit.amos                             0                       # Number of atomic instructions committed
system.cpu1.commit.branchMispredicts            24070                       # The number of times a branch was mispredicted
system.cpu1.commit.branches                    609017                       # Number of branches committed
system.cpu1.commit.bw_lim_events               799084                       # number cycles where commit BW limit reached
system.cpu1.commit.commitNonSpecStalls            668                       # The number of times commit has been forced to stall to communicate backwards
system.cpu1.commit.commitSquashedInsts        1093111                       # The number of squashed insts skipped by commit
system.cpu1.commit.committedInsts             5972158                       # Number of instructions committed
system.cpu1.commit.committedOps               9027418                       # Number of ops (including micro ops) committed
system.cpu1.commit.committed_per_cycle::samples      9865046                       # Number of insts commited each cycle
system.cpu1.commit.committed_per_cycle::mean     0.915091                       # Number of insts commited each cycle
system.cpu1.commit.committed_per_cycle::stdev     2.309579                       # Number of insts commited each cycle
system.cpu1.commit.committed_per_cycle::underflows            0      0.00%      0.00% # Number of insts commited each cycle
system.cpu1.commit.committed_per_cycle::0      8073651     81.84%     81.84% # Number of insts commited each cycle
system.cpu1.commit.committed_per_cycle::1       372659      3.78%     85.62% # Number of insts commited each cycle
system.cpu1.commit.committed_per_cycle::2       141499      1.43%     87.05% # Number of insts commited each cycle
system.cpu1.commit.committed_per_cycle::3       210118      2.13%     89.18% # Number of insts commited each cycle
system.cpu1.commit.committed_per_cycle::4        41770      0.42%     89.61% # Number of insts commited each cycle
system.cpu1.commit.committed_per_cycle::5       192394      1.95%     91.56% # Number of insts commited each cycle
system.cpu1.commit.committed_per_cycle::6        17412      0.18%     91.73% # Number of insts commited each cycle
system.cpu1.commit.committed_per_cycle::7        16459      0.17%     91.90% # Number of insts commited each cycle
system.cpu1.commit.committed_per_cycle::8       799084      8.10%    100.00% # Number of insts commited each cycle
system.cpu1.commit.committed_per_cycle::overflows            0      0.00%    100.00% # Number of insts commited each cycle
system.cpu1.commit.committed_per_cycle::min_value            0                       # Number of insts commited each cycle
system.cpu1.commit.committed_per_cycle::max_value            8                       # Number of insts commited each cycle
system.cpu1.commit.committed_per_cycle::total      9865046                       # Number of insts commited each cycle
system.cpu1.commit.fp_insts                     69763                       # Number of committed floating point instructions.
system.cpu1.commit.function_calls                8843                       # Number of function calls committed.
system.cpu1.commit.int_insts                  8976121                       # Number of committed integer instructions.
system.cpu1.commit.loads                      1320142                       # Number of loads committed
system.cpu1.commit.membars                          0                       # Number of memory barriers committed
system.cpu1.commit.op_class_0::No_OpClass        18860      0.21%      0.21% # Class of committed instruction
system.cpu1.commit.op_class_0::IntAlu         7190819     79.66%     79.86% # Class of committed instruction
system.cpu1.commit.op_class_0::IntMult             27      0.00%     79.86% # Class of committed instruction
system.cpu1.commit.op_class_0::IntDiv           34400      0.38%     80.25% # Class of committed instruction
system.cpu1.commit.op_class_0::FloatAdd          2710      0.03%     80.28% # Class of committed instruction
system.cpu1.commit.op_class_0::FloatCmp             0      0.00%     80.28% # Class of committed instruction
system.cpu1.commit.op_class_0::FloatCvt          1088      0.01%     80.29% # Class of committed instruction
system.cpu1.commit.op_class_0::FloatMult            0      0.00%     80.29% # Class of committed instruction
system.cpu1.commit.op_class_0::FloatMultAcc            0      0.00%     80.29% # Class of committed instruction
system.cpu1.commit.op_class_0::FloatDiv             0      0.00%     80.29% # Class of committed instruction
system.cpu1.commit.op_class_0::FloatMisc            0      0.00%     80.29% # Class of committed instruction
system.cpu1.commit.op_class_0::FloatSqrt            0      0.00%     80.29% # Class of committed instruction
system.cpu1.commit.op_class_0::SimdAdd           5968      0.07%     80.35% # Class of committed instruction
system.cpu1.commit.op_class_0::SimdAddAcc            0      0.00%     80.35% # Class of committed instruction
system.cpu1.commit.op_class_0::SimdAlu          10785      0.12%     80.47% # Class of committed instruction
system.cpu1.commit.op_class_0::SimdCmp              0      0.00%     80.47% # Class of committed instruction
system.cpu1.commit.op_class_0::SimdCvt          11614      0.13%     80.60% # Class of committed instruction
system.cpu1.commit.op_class_0::SimdMisc          6254      0.07%     80.67% # Class of committed instruction
system.cpu1.commit.op_class_0::SimdMult             0      0.00%     80.67% # Class of committed instruction
system.cpu1.commit.op_class_0::SimdMultAcc            0      0.00%     80.67% # Class of committed instruction
system.cpu1.commit.op_class_0::SimdShift          787      0.01%     80.68% # Class of committed instruction
system.cpu1.commit.op_class_0::SimdShiftAcc            0      0.00%     80.68% # Class of committed instruction
system.cpu1.commit.op_class_0::SimdDiv              0      0.00%     80.68% # Class of committed instruction
system.cpu1.commit.op_class_0::SimdSqrt             0      0.00%     80.68% # Class of committed instruction
system.cpu1.commit.op_class_0::SimdFloatAdd            0      0.00%     80.68% # Class of committed instruction
system.cpu1.commit.op_class_0::SimdFloatAlu            0      0.00%     80.68% # Class of committed instruction
system.cpu1.commit.op_class_0::SimdFloatCmp            0      0.00%     80.68% # Class of committed instruction
system.cpu1.commit.op_class_0::SimdFloatCvt            0      0.00%     80.68% # Class of committed instruction
system.cpu1.commit.op_class_0::SimdFloatDiv            0      0.00%     80.68% # Class of committed instruction
system.cpu1.commit.op_class_0::SimdFloatMisc            0      0.00%     80.68% # Class of committed instruction
system.cpu1.commit.op_class_0::SimdFloatMult            0      0.00%     80.68% # Class of committed instruction
system.cpu1.commit.op_class_0::SimdFloatMultAcc            0      0.00%     80.68% # Class of committed instruction
system.cpu1.commit.op_class_0::SimdFloatSqrt            0      0.00%     80.68% # Class of committed instruction
system.cpu1.commit.op_class_0::SimdReduceAdd            0      0.00%     80.68% # Class of committed instruction
system.cpu1.commit.op_class_0::SimdReduceAlu            0      0.00%     80.68% # Class of committed instruction
system.cpu1.commit.op_class_0::SimdReduceCmp            0      0.00%     80.68% # Class of committed instruction
system.cpu1.commit.op_class_0::SimdFloatReduceAdd            0      0.00%     80.68% # Class of committed instruction
system.cpu1.commit.op_class_0::SimdFloatReduceCmp            0      0.00%     80.68% # Class of committed instruction
system.cpu1.commit.op_class_0::SimdAes              0      0.00%     80.68% # Class of committed instruction
system.cpu1.commit.op_class_0::SimdAesMix            0      0.00%     80.68% # Class of committed instruction
system.cpu1.commit.op_class_0::SimdSha1Hash            0      0.00%     80.68% # Class of committed instruction
system.cpu1.commit.op_class_0::SimdSha1Hash2            0      0.00%     80.68% # Class of committed instruction
system.cpu1.commit.op_class_0::SimdSha256Hash            0      0.00%     80.68% # Class of committed instruction
system.cpu1.commit.op_class_0::SimdSha256Hash2            0      0.00%     80.68% # Class of committed instruction
system.cpu1.commit.op_class_0::SimdShaSigma2            0      0.00%     80.68% # Class of committed instruction
[...]
system.mem_ctrl.totBusLat                  2098380000                       # Total ticks spent in databus transfers
system.mem_ctrl.totGap                    10122185000                       # Total gap between requests
system.mem_ctrl.totMemAccLat              67436120080                       # Total ticks spent from burst creation until serviced by the DRAM
system.mem_ctrl.totQLat                   59567195080                       # Total ticks spent queuing
system.mem_ctrl.wrPerTurnAround::samples        23178                       # Writes before turning the bus around for reads
system.mem_ctrl.wrPerTurnAround::mean       16.016352                       # Writes before turning the bus around for reads
system.mem_ctrl.wrPerTurnAround::gmean      16.015208                       # Writes before turning the bus around for reads
system.mem_ctrl.wrPerTurnAround::stdev       0.201903                       # Writes before turning the bus around for reads
system.mem_ctrl.wrPerTurnAround::16             23007     99.26%     99.26% # Writes before turning the bus around for reads
system.mem_ctrl.wrPerTurnAround::17                26      0.11%     99.37% # Writes before turning the bus around for reads
system.mem_ctrl.wrPerTurnAround::18                96      0.41%     99.79% # Writes before turning the bus around for reads
system.mem_ctrl.wrPerTurnAround::19                36      0.16%     99.94% # Writes before turning the bus around for reads
system.mem_ctrl.wrPerTurnAround::20                12      0.05%    100.00% # Writes before turning the bus around for reads
system.mem_ctrl.wrPerTurnAround::21                 1      0.00%    100.00% # Writes before turning the bus around for reads
system.mem_ctrl.wrPerTurnAround::total          23178                       # Writes before turning the bus around for reads
system.mem_ctrl.wrQLenPdf::0                        1                       # What write queue length does an incoming req see
system.mem_ctrl.wrQLenPdf::1                        1                       # What write queue length does an incoming req see
system.mem_ctrl.wrQLenPdf::2                        1                       # What write queue length does an incoming req see
system.mem_ctrl.wrQLenPdf::3                        1                       # What write queue length does an incoming req see
system.mem_ctrl.wrQLenPdf::4                        1                       # What write queue length does an incoming req see
system.mem_ctrl.wrQLenPdf::5                        1                       # What write queue length does an incoming req see
system.mem_ctrl.wrQLenPdf::6                        1                       # What write queue length does an incoming req see
system.mem_ctrl.wrQLenPdf::7                        1                       # What write queue length does an incoming req see
system.mem_ctrl.wrQLenPdf::8                        1                       # What write queue length does an incoming req see
system.mem_ctrl.wrQLenPdf::9                        1                       # What write queue length does an incoming req see
system.mem_ctrl.wrQLenPdf::10                       1                       # What write queue length does an incoming req see
system.mem_ctrl.wrQLenPdf::11                       1                       # What write queue length does an incoming req see
system.mem_ctrl.wrQLenPdf::12                       1                       # What write queue length does an incoming req see
system.mem_ctrl.wrQLenPdf::13                       1                       # What write queue length does an incoming req see
system.mem_ctrl.wrQLenPdf::14                       1                       # What write queue length does an incoming req see
system.mem_ctrl.wrQLenPdf::15                     136                       # What write queue length does an incoming req see
system.mem_ctrl.wrQLenPdf::16                     166                       # What write queue length does an incoming req see
system.mem_ctrl.wrQLenPdf::17                     606                       # What write queue length does an incoming req see
system.mem_ctrl.wrQLenPdf::18                     800                       # What write queue length does an incoming req see
system.mem_ctrl.wrQLenPdf::19                     870                       # What write queue length does an incoming req see
system.mem_ctrl.wrQLenPdf::20                     874                       # What write queue length does an incoming req see
system.mem_ctrl.wrQLenPdf::21                     888                       # What write queue length does an incoming req see
system.mem_ctrl.wrQLenPdf::22                     886                       # What write queue length does an incoming req see
system.mem_ctrl.wrQLenPdf::23                     890                       # What write queue length does an incoming req see
system.mem_ctrl.wrQLenPdf::24                     873                       # What write queue length does an incoming req see
system.mem_ctrl.wrQLenPdf::25                     879                       # What write queue length does an incoming req see
system.mem_ctrl.wrQLenPdf::26                     883                       # What write queue length does an incoming req see
system.mem_ctrl.wrQLenPdf::27                     880                       # What write queue length does an incoming req see
system.mem_ctrl.wrQLenPdf::28                     886                       # What write queue length does an incoming req see
system.mem_ctrl.wrQLenPdf::29                     892                       # What write queue length does an incoming req see
system.mem_ctrl.wrQLenPdf::30                     876                       # What write queue length does an incoming req see
system.mem_ctrl.wrQLenPdf::31                     872                       # What write queue length does an incoming req see
system.mem_ctrl.wrQLenPdf::32                     863                       # What write queue length does an incoming req see
system.mem_ctrl.wrQLenPdf::33                       7                       # What write queue length does an incoming req see
system.mem_ctrl.wrQLenPdf::34                       3                       # What write queue length does an incoming req see
system.mem_ctrl.wrQLenPdf::35                       2                       # What write queue length does an incoming req see
system.mem_ctrl.wrQLenPdf::36                       1                       # What write queue length does an incoming req see
system.mem_ctrl.wrQLenPdf::37                       1                       # What write queue length does an incoming req see
system.mem_ctrl.wrQLenPdf::38                       1                       # What write queue length does an incoming req see
system.mem_ctrl.wrQLenPdf::39                      49                       # What write queue length does an incoming req see
system.mem_ctrl.wrQLenPdf::40                     160                       # What write queue length does an incoming req see
system.mem_ctrl.wrQLenPdf::41                     840                       # What write queue length does an incoming req see
system.mem_ctrl.wrQLenPdf::42                    2882                       # What write queue length does an incoming req see
system.mem_ctrl.wrQLenPdf::43                    6858                       # What write queue length does an incoming req see
system.mem_ctrl.wrQLenPdf::44                   11975                       # What write queue length does an incoming req see
system.mem_ctrl.wrQLenPdf::45                   17085                       # What write queue length does an incoming req see
system.mem_ctrl.wrQLenPdf::46                   21450                       # What write queue length does an incoming req see
system.mem_ctrl.wrQLenPdf::47                   25777                       # What write queue length does an incoming req see
system.mem_ctrl.wrQLenPdf::48                   30349                       # What write queue length does an incoming req see
system.mem_ctrl.wrQLenPdf::49                   34193                       # What write queue length does an incoming req see
system.mem_ctrl.wrQLenPdf::50                   35836                       # What write queue length does an incoming req see
system.mem_ctrl.wrQLenPdf::51                   33852                       # What write queue length does an incoming req see
system.mem_ctrl.wrQLenPdf::52                   31016                       # What write queue length does an incoming req see
system.mem_ctrl.wrQLenPdf::53                   28958                       # What write queue length does an incoming req see
system.mem_ctrl.wrQLenPdf::54                   29178                       # What write queue length does an incoming req see
system.mem_ctrl.wrQLenPdf::55                   25756                       # What write queue length does an incoming req see
system.mem_ctrl.wrQLenPdf::56                   14720                       # What write queue length does an incoming req see
system.mem_ctrl.wrQLenPdf::57                    4151                       # What write queue length does an incoming req see
system.mem_ctrl.wrQLenPdf::58                    1185                       # What write queue length does an incoming req see
system.mem_ctrl.wrQLenPdf::59                     459                       # What write queue length does an incoming req see
system.mem_ctrl.wrQLenPdf::60                     261                       # What write queue length does an incoming req see
system.mem_ctrl.wrQLenPdf::61                     137                       # What write queue length does an incoming req see
system.mem_ctrl.wrQLenPdf::62                      74                       # What write queue length does an incoming req see
system.mem_ctrl.wrQLenPdf::63                      36                       # What write queue length does an incoming req see
system.mem_ctrl.writeBursts                    371287                       # Number of DRAM write bursts, including those merged in the write queue
system.mem_ctrl.writePktSize::0                     0                       # Write request sizes (log2)
system.mem_ctrl.writePktSize::1                     0                       # Write request sizes (log2)
system.mem_ctrl.writePktSize::2                     0                       # Write request sizes (log2)
system.mem_ctrl.writePktSize::3                     0                       # Write request sizes (log2)
system.mem_ctrl.writePktSize::4                     0                       # Write request sizes (log2)
system.mem_ctrl.writePktSize::5                     0                       # Write request sizes (log2)
system.mem_ctrl.writePktSize::6                371287                       # Write request sizes (log2)
system.mem_ctrl.writeReqs                      371287                       # Number of write requests accepted
system.mem_ctrl.writeRowHitRate                 74.16                       # Row buffer hit rate for writes
system.mem_ctrl.writeRowHits                   275346                       # Number of row buffer hits during writes
system.mem_ctrl_0.actBackEnergy            4560091200                       # Energy for active background per rank (pJ)
system.mem_ctrl_0.actEnergy                1708809060                       # Energy for activate commands per rank (pJ)
system.mem_ctrl_0.actPowerDownEnergy                0                       # Energy for active power-down per rank (pJ)
system.mem_ctrl_0.averagePower            1038.421540                       # Core power per rank (mW)
system.mem_ctrl_0.memoryStateTime::IDLE      18479749                       # Time in different power states
system.mem_ctrl_0.memoryStateTime::REF      337763000                       # Time in different power states
system.mem_ctrl_0.memoryStateTime::SREF             0                       # Time in different power states
system.mem_ctrl_0.memoryStateTime::PRE_PDN            0                       # Time in different power states
system.mem_ctrl_0.memoryStateTime::ACT     9765967251                       # Time in different power states
system.mem_ctrl_0.memoryStateTime::ACT_PDN            0                       # Time in different power states
system.mem_ctrl_0.preBackEnergy              46937760                       # Energy for precharge background per rank (pJ)
system.mem_ctrl_0.preEnergy                 908253555                       # Energy for precharge commands per rank (pJ)
system.mem_ctrl_0.prePowerDownEnergy                0                       # Energy for precharge power-down per rank (pJ)
system.mem_ctrl_0.readEnergy               1506397200                       # Energy for read commands per rank (pJ)
system.mem_ctrl_0.refreshEnergy          799032000.000000                       # Energy for refresh commands per rank (pJ)
system.mem_ctrl_0.selfRefreshEnergy                 0                       # Energy for self refresh per rank (pJ)
system.mem_ctrl_0.totalEnergy             10511120895                       # Total energy per rank (pJ)
system.mem_ctrl_0.totalIdleTime                     0                       # Total Idle time Per DRAM Rank
system.mem_ctrl_0.writeEnergy               981600120                       # Energy for write commands per rank (pJ)
system.mem_ctrl_1.actBackEnergy            4542705630                       # Energy for active background per rank (pJ)
system.mem_ctrl_1.actEnergy                1678514040                       # Energy for activate commands per rank (pJ)
system.mem_ctrl_1.actPowerDownEnergy                0                       # Energy for active power-down per rank (pJ)
system.mem_ctrl_1.averagePower            1029.445927                       # Core power per rank (mW)
system.mem_ctrl_1.memoryStateTime::IDLE      22852501                       # Time in different power states
system.mem_ctrl_1.memoryStateTime::REF      337782750                       # Time in different power states
system.mem_ctrl_1.memoryStateTime::SREF             0                       # Time in different power states
system.mem_ctrl_1.memoryStateTime::PRE_PDN            0                       # Time in different power states
system.mem_ctrl_1.memoryStateTime::ACT     9761574749                       # Time in different power states
system.mem_ctrl_1.memoryStateTime::ACT_PDN            0                       # Time in different power states
system.mem_ctrl_1.preBackEnergy              61570560                       # Energy for precharge background per rank (pJ)
system.mem_ctrl_1.preEnergy                 892151370                       # Energy for precharge commands per rank (pJ)
system.mem_ctrl_1.prePowerDownEnergy                0                       # Energy for precharge power-down per rank (pJ)
system.mem_ctrl_1.readEnergy               1490089440                       # Energy for read commands per rank (pJ)
system.mem_ctrl_1.refreshEnergy          799032000.000000                       # Energy for refresh commands per rank (pJ)
system.mem_ctrl_1.selfRefreshEnergy                 0                       # Energy for self refresh per rank (pJ)
system.mem_ctrl_1.totalEnergy             10420267860                       # Total energy per rank (pJ)
system.mem_ctrl_1.totalIdleTime                     0                       # Total Idle time Per DRAM Rank
system.mem_ctrl_1.writeEnergy               956204820                       # Energy for write commands per rank (pJ)
system.membus.pkt_count_system.l2cache.mem_side::system.mem_ctrl.port      1251201                       # Packet count per connected master and slave (bytes)
system.membus.pkt_count_system.l2cache.mem_side::total      1251201                       # Packet count per connected master and slave (bytes)
system.membus.pkt_count::total                1251201                       # Packet count per connected master and slave (bytes)
system.membus.pkt_size_system.l2cache.mem_side::system.mem_ctrl.port     50624448                       # Cumulative packet size per connected master and slave (bytes)
system.membus.pkt_size_system.l2cache.mem_side::total     50624448                       # Cumulative packet size per connected master and slave (bytes)
system.membus.pkt_size::total                50624448                       # Cumulative packet size per connected master and slave (bytes)
system.membus.pwrStateResidencyTicks::UNDEFINED  10122210000                       # Cumulative time (in ticks) in various power states
system.membus.reqLayer8.occupancy          2336345792                       # Layer occupancy (ticks)
system.membus.reqLayer8.utilization              23.1                       # Layer utilization (%)
system.membus.respLayer0.occupancy         2249171494                       # Layer occupancy (ticks)
system.membus.respLayer0.utilization             22.2                       # Layer utilization (%)
system.membus.snoopTraffic                          0                       # Total snoop traffic (bytes)
system.membus.snoop_fanout::samples            419730                       # Request fanout histogram
system.membus.snoop_fanout::mean                    0                       # Request fanout histogram
system.membus.snoop_fanout::stdev                   0                       # Request fanout histogram
system.membus.snoop_fanout::underflows              0      0.00%      0.00% # Request fanout histogram
system.membus.snoop_fanout::0                  419730    100.00%    100.00% # Request fanout histogram
system.membus.snoop_fanout::1                       0      0.00%    100.00% # Request fanout histogram
system.membus.snoop_fanout::overflows               0      0.00%    100.00% # Request fanout histogram
system.membus.snoop_fanout::min_value               0                       # Request fanout histogram
system.membus.snoop_fanout::max_value               0                       # Request fanout histogram
system.membus.snoop_fanout::total              419730                       # Request fanout histogram
system.membus.snoop_filter.hit_multi_requests            0                       # Number of requests hitting in the snoop filter with multiple (>1) holders of the requested data.
system.membus.snoop_filter.hit_multi_snoops            0                       # Number of snoops hitting in the snoop filter with multiple (>1) holders of the requested data.
system.membus.snoop_filter.hit_single_requests       411792                       # Number of requests hitting in the snoop filter with a single holder of the requested data.
system.membus.snoop_filter.hit_single_snoops            0                       # Number of snoops hitting in the snoop filter with a single holder of the requested data.
system.membus.snoop_filter.tot_requests        831503                       # Total number of requests made to the snoop filter.
system.membus.snoop_filter.tot_snoops               0                       # Total number of snoops made to the snoop filter.
system.membus.snoops                                0                       # Total snoops (count)
system.membus.trans_dist::ReadResp             387982                       # Transaction distribution
system.membus.trans_dist::WritebackDirty       371287                       # Transaction distribution
system.membus.trans_dist::CleanEvict            40464                       # Transaction distribution
system.membus.trans_dist::UpgradeReq                2                       # Transaction distribution
system.membus.trans_dist::ReadExReq             31738                       # Transaction distribution
system.membus.trans_dist::ReadExResp            31738                       # Transaction distribution
system.membus.trans_dist::ReadSharedReq        387990                       # Transaction distribution

---------- End Simulation Statistics   ----------
