
---------- Begin Simulation Statistics ----------
final_tick                               186058435000                       # Number of ticks from beginning of simulation (restored from checkpoints and never reset)
host_inst_rate                                 361867                       # Simulator instruction rate (inst/s)
host_mem_usage                                 840512                       # Number of bytes of host memory used
host_op_rate                                   574927                       # Simulator op (including micro ops) rate (op/s)
host_seconds                                   372.04                       # Real time elapsed on the host
host_tick_rate                              500096763                       # Simulator tick rate (ticks/s)
sim_freq                                 1000000000000                       # Frequency of simulated ticks
sim_insts                                   134630750                       # Number of instructions simulated
sim_ops                                     213898666                       # Number of ops (including micro ops) simulated
sim_seconds                                  0.186058                       # Number of seconds simulated
sim_ticks                                186058435000                       # Number of ticks simulated
system.clk_domain.clock                          1000                       # Clock period in ticks
system.clk_domain.voltage_domain.voltage            1                       # Voltage in Volts
system.cpu0.Branches                         11271693                       # Number of branches fetched
system.cpu0.committedInsts                   50000000                       # Number of instructions committed
system.cpu0.committedOps                     93416416                       # Number of ops (including micro ops) committed
system.cpu0.dcache.ReadReq_accesses::.cpu0.data     10895037                       # number of ReadReq accesses(hits+misses)
system.cpu0.dcache.ReadReq_accesses::total     10895037                       # number of ReadReq accesses(hits+misses)
system.cpu0.dcache.ReadReq_avg_miss_latency::.cpu0.data 119706.287977                       # average ReadReq miss latency
system.cpu0.dcache.ReadReq_avg_miss_latency::total 119706.287977                       # average ReadReq miss latency
system.cpu0.dcache.ReadReq_avg_mshr_miss_latency::.cpu0.data 117706.287977                       # average ReadReq mshr miss latency
system.cpu0.dcache.ReadReq_avg_mshr_miss_latency::total 117706.287977                       # average ReadReq mshr miss latency
system.cpu0.dcache.ReadReq_hits::.cpu0.data     10880390                       # number of ReadReq hits
system.cpu0.dcache.ReadReq_hits::total       10880390                       # number of ReadReq hits
system.cpu0.dcache.ReadReq_miss_latency::.cpu0.data   1753338000                       # number of ReadReq miss cycles
system.cpu0.dcache.ReadReq_miss_latency::total   1753338000                       # number of ReadReq miss cycles
system.cpu0.dcache.ReadReq_miss_rate::.cpu0.data     0.001344                       # miss rate for ReadReq accesses
system.cpu0.dcache.ReadReq_miss_rate::total     0.001344                       # miss rate for ReadReq accesses
system.cpu0.dcache.ReadReq_misses::.cpu0.data        14647                       # number of ReadReq misses
system.cpu0.dcache.ReadReq_misses::total        14647                       # number of ReadReq misses
system.cpu0.dcache.ReadReq_mshr_miss_latency::.cpu0.data   1724044000                       # number of ReadReq MSHR miss cycles
system.cpu0.dcache.ReadReq_mshr_miss_latency::total   1724044000                       # number of ReadReq MSHR miss cycles
system.cpu0.dcache.ReadReq_mshr_miss_rate::.cpu0.data     0.001344                       # mshr miss rate for ReadReq accesses
system.cpu0.dcache.ReadReq_mshr_miss_rate::total     0.001344                       # mshr miss rate for ReadReq accesses
system.cpu0.dcache.ReadReq_mshr_misses::.cpu0.data        14647                       # number of ReadReq MSHR misses
system.cpu0.dcache.ReadReq_mshr_misses::total        14647                       # number of ReadReq MSHR misses
system.cpu0.dcache.WriteReq_accesses::.cpu0.data      7274294                       # number of WriteReq accesses(hits+misses)
system.cpu0.dcache.WriteReq_accesses::total      7274294                       # number of WriteReq accesses(hits+misses)
system.cpu0.dcache.WriteReq_avg_miss_latency::.cpu0.data 143221.220527                       # average WriteReq miss latency
system.cpu0.dcache.WriteReq_avg_miss_latency::total 143221.220527                       # average WriteReq miss latency
system.cpu0.dcache.WriteReq_avg_mshr_miss_latency::.cpu0.data 141221.220527                       # average WriteReq mshr miss latency
system.cpu0.dcache.WriteReq_avg_mshr_miss_latency::total 141221.220527                       # average WriteReq mshr miss latency
system.cpu0.dcache.WriteReq_hits::.cpu0.data      7222382                       # number of WriteReq hits
system.cpu0.dcache.WriteReq_hits::total       7222382                       # number of WriteReq hits
system.cpu0.dcache.WriteReq_miss_latency::.cpu0.data   7434900000                       # number of WriteReq miss cycles
system.cpu0.dcache.WriteReq_miss_latency::total   7434900000                       # number of WriteReq miss cycles
system.cpu0.dcache.WriteReq_miss_rate::.cpu0.data     0.007136                       # miss rate for WriteReq accesses
system.cpu0.dcache.WriteReq_miss_rate::total     0.007136                       # miss rate for WriteReq accesses
system.cpu0.dcache.WriteReq_misses::.cpu0.data        51912                       # number of WriteReq misses
system.cpu0.dcache.WriteReq_misses::total        51912                       # number of WriteReq misses
system.cpu0.dcache.WriteReq_mshr_miss_latency::.cpu0.data   7331076000                       # number of WriteReq MSHR miss cycles
system.cpu0.dcache.WriteReq_mshr_miss_latency::total   7331076000                       # number of WriteReq MSHR miss cycles
system.cpu0.dcache.WriteReq_mshr_miss_rate::.cpu0.data     0.007136                       # mshr miss rate for WriteReq accesses
system.cpu0.dcache.WriteReq_mshr_miss_rate::total     0.007136                       # mshr miss rate for WriteReq accesses
system.cpu0.dcache.WriteReq_mshr_misses::.cpu0.data        51912                       # number of WriteReq MSHR misses
system.cpu0.dcache.WriteReq_mshr_misses::total        51912                       # number of WriteReq MSHR misses
system.cpu0.dcache.avg_blocked_cycles::no_mshrs          nan                       # average number of cycles each access was blocked
system.cpu0.dcache.avg_blocked_cycles::no_targets          nan                       # average number of cycles each access was blocked
system.cpu0.dcache.blocked::no_mshrs                0                       # number of cycles access was blocked
system.cpu0.dcache.blocked::no_targets              0                       # number of cycles access was blocked
system.cpu0.dcache.blocked_cycles::no_mshrs            0                       # number of cycles access was blocked
system.cpu0.dcache.blocked_cycles::no_targets            0                       # number of cycles access was blocked
system.cpu0.dcache.demand_accesses::.cpu0.data     18169331                       # number of demand (read+write) accesses
system.cpu0.dcache.demand_accesses::total     18169331                       # number of demand (read+write) accesses
system.cpu0.dcache.demand_avg_miss_latency::.cpu0.data 138046.515122                       # average overall miss latency
system.cpu0.dcache.demand_avg_miss_latency::total 138046.515122                       # average overall miss latency
system.cpu0.dcache.demand_avg_mshr_miss_latency::.cpu0.data 136046.515122                       # average overall mshr miss latency
system.cpu0.dcache.demand_avg_mshr_miss_latency::total 136046.515122                       # average overall mshr miss latency
system.cpu0.dcache.demand_hits::.cpu0.data     18102772                       # number of demand (read+write) hits
system.cpu0.dcache.demand_hits::total        18102772                       # number of demand (read+write) hits
system.cpu0.dcache.demand_miss_latency::.cpu0.data   9188238000                       # number of demand (read+write) miss cycles
system.cpu0.dcache.demand_miss_latency::total   9188238000                       # number of demand (read+write) miss cycles
system.cpu0.dcache.demand_miss_rate::.cpu0.data     0.003663                       # miss rate for demand accesses
system.cpu0.dcache.demand_miss_rate::total     0.003663                       # miss rate for demand accesses
system.cpu0.dcache.demand_misses::.cpu0.data        66559                       # number of demand (read+write) misses
system.cpu0.dcache.demand_misses::total         66559                       # number of demand (read+write) misses
system.cpu0.dcache.demand_mshr_miss_latency::.cpu0.data   9055120000                       # number of demand (read+write) MSHR miss cycles
system.cpu0.dcache.demand_mshr_miss_latency::total   9055120000                       # number of demand (read+write) MSHR miss cycles
system.cpu0.dcache.demand_mshr_miss_rate::.cpu0.data     0.003663                       # mshr miss rate for demand accesses
system.cpu0.dcache.demand_mshr_miss_rate::total     0.003663                       # mshr miss rate for demand accesses
system.cpu0.dcache.demand_mshr_misses::.cpu0.data        66559                       # number of demand (read+write) MSHR misses
system.cpu0.dcache.demand_mshr_misses::total        66559                       # number of demand (read+write) MSHR misses
system.cpu0.dcache.overall_accesses::.cpu0.data     18169331                       # number of overall (read+write) accesses
system.cpu0.dcache.overall_accesses::total     18169331                       # number of overall (read+write) accesses
system.cpu0.dcache.overall_avg_miss_latency::.cpu0.data 138046.515122                       # average overall miss latency
system.cpu0.dcache.overall_avg_miss_latency::total 138046.515122                       # average overall miss latency
system.cpu0.dcache.overall_avg_mshr_miss_latency::.cpu0.data 136046.515122                       # average overall mshr miss latency
system.cpu0.dcache.overall_avg_mshr_miss_latency::total 136046.515122                       # average overall mshr miss latency
system.cpu0.dcache.overall_hits::.cpu0.data     18102772                       # number of overall hits
system.cpu0.dcache.overall_hits::total       18102772                       # number of overall hits
system.cpu0.dcache.overall_miss_latency::.cpu0.data   9188238000                       # number of overall miss cycles
system.cpu0.dcache.overall_miss_latency::total   9188238000                       # number of overall miss cycles
system.cpu0.dcache.overall_miss_rate::.cpu0.data     0.003663                       # miss rate for overall accesses
system.cpu0.dcache.overall_miss_rate::total     0.003663                       # miss rate for overall accesses
system.cpu0.dcache.overall_misses::.cpu0.data        66559                       # number of overall misses
system.cpu0.dcache.overall_misses::total        66559                       # number of overall misses
system.cpu0.dcache.overall_mshr_miss_latency::.cpu0.data   9055120000                       # number of overall MSHR miss cycles
system.cpu0.dcache.overall_mshr_miss_latency::total   9055120000                       # number of overall MSHR miss cycles
system.cpu0.dcache.overall_mshr_miss_rate::.cpu0.data     0.003663                       # mshr miss rate for overall accesses
system.cpu0.dcache.overall_mshr_miss_rate::total     0.003663                       # mshr miss rate for overall accesses
system.cpu0.dcache.overall_mshr_misses::.cpu0.data        66559                       # number of overall MSHR misses
system.cpu0.dcache.overall_mshr_misses::total        66559                       # number of overall MSHR misses
system.cpu0.dcache.pwrStateResidencyTicks::UNDEFINED 186058435000                       # Cumulative time (in ticks) in various power states
system.cpu0.dcache.replacements                 65535                       # number of replacements
system.cpu0.dcache.tags.age_task_id_blocks_1024::0            1                       # Occupied blocks per task id
system.cpu0.dcache.tags.age_task_id_blocks_1024::1           18                       # Occupied blocks per task id
system.cpu0.dcache.tags.age_task_id_blocks_1024::2          182                       # Occupied blocks per task id
system.cpu0.dcache.tags.age_task_id_blocks_1024::3          748                       # Occupied blocks per task id
system.cpu0.dcache.tags.age_task_id_blocks_1024::4           75                       # Occupied blocks per task id
system.cpu0.dcache.tags.avg_refs           272.980829                       # Average number of references to valid blocks.
system.cpu0.dcache.tags.data_accesses        36405221                       # Number of data accesses
system.cpu0.dcache.tags.occ_blocks::.cpu0.data  1020.361509                       # Average occupied blocks per requestor
system.cpu0.dcache.tags.occ_percent::.cpu0.data     0.996447                       # Average percentage of cache occupancy
system.cpu0.dcache.tags.occ_percent::total     0.996447                       # Average percentage of cache occupancy
system.cpu0.dcache.tags.occ_task_id_blocks::1024         1024                       # Occupied blocks per task id
system.cpu0.dcache.tags.occ_task_id_percent::1024            1                       # Percentage of cache occupancy per task id
system.cpu0.dcache.tags.pwrStateResidencyTicks::UNDEFINED 186058435000                       # Cumulative time (in ticks) in various power states
system.cpu0.dcache.tags.sampled_refs            66559                       # Sample count of references to valid blocks.
system.cpu0.dcache.tags.tag_accesses         36405221                       # Number of tag accesses
system.cpu0.dcache.tags.tagsinuse         1020.361509                       # Cycle average of tags in use
system.cpu0.dcache.tags.total_refs           18169331                       # Total number of references to valid blocks.
system.cpu0.dcache.tags.warmup_cycle           220000                       # Cycle when the warmup percentage was hit.
system.cpu0.dcache.writebacks::.writebacks        61928                       # number of writebacks
system.cpu0.dcache.writebacks::total            61928                       # number of writebacks
system.cpu0.dtb.rdAccesses                   10895037                       # TLB accesses on read requests
system.cpu0.dtb.rdMisses                         9271                       # TLB misses on read requests
system.cpu0.dtb.walker.pwrStateResidencyTicks::UNDEFINED 186058435000                       # Cumulative time (in ticks) in various power states
system.cpu0.dtb.wrAccesses                    7274294                       # TLB accesses on write requests
system.cpu0.dtb.wrMisses                          907                       # TLB misses on write requests
system.cpu0.icache.ReadReq_accesses::.cpu0.inst     67564204                       # number of ReadReq accesses(hits+misses)
system.cpu0.icache.ReadReq_accesses::total     67564204                       # number of ReadReq accesses(hits+misses)
system.cpu0.icache.ReadReq_avg_miss_latency::.cpu0.inst 26553.968915                       # average ReadReq miss latency
system.cpu0.icache.ReadReq_avg_miss_latency::total 26553.968915                       # average ReadReq miss latency
system.cpu0.icache.ReadReq_avg_mshr_miss_latency::.cpu0.inst 24553.968915                       # average ReadReq mshr miss latency
system.cpu0.icache.ReadReq_avg_mshr_miss_latency::total 24553.968915                       # average ReadReq mshr miss latency
system.cpu0.icache.ReadReq_hits::.cpu0.inst     67338500                       # number of ReadReq hits
system.cpu0.icache.ReadReq_hits::total       67338500                       # number of ReadReq hits
system.cpu0.icache.ReadReq_miss_latency::.cpu0.inst   5993337000                       # number of ReadReq miss cycles
system.cpu0.icache.ReadReq_miss_latency::total   5993337000                       # number of ReadReq miss cycles
system.cpu0.icache.ReadReq_miss_rate::.cpu0.inst     0.003341                       # miss rate for ReadReq accesses
system.cpu0.icache.ReadReq_miss_rate::total     0.003341                       # miss rate for ReadReq accesses
system.cpu0.icache.ReadReq_misses::.cpu0.inst       225704                       # number of ReadReq misses
system.cpu0.icache.ReadReq_misses::total       225704                       # number of ReadReq misses
system.cpu0.icache.ReadReq_mshr_miss_latency::.cpu0.inst   5541929000                       # number of ReadReq MSHR miss cycles
system.cpu0.icache.ReadReq_mshr_miss_latency::total   5541929000                       # number of ReadReq MSHR miss cycles
system.cpu0.icache.ReadReq_mshr_miss_rate::.cpu0.inst     0.003341                       # mshr miss rate for ReadReq accesses
system.cpu0.icache.ReadReq_mshr_miss_rate::total     0.003341                       # mshr miss rate for ReadReq accesses
system.cpu0.icache.ReadReq_mshr_misses::.cpu0.inst       225704                       # number of ReadReq MSHR misses
system.cpu0.icache.ReadReq_mshr_misses::total       225704                       # number of ReadReq MSHR misses
system.cpu0.icache.avg_blocked_cycles::no_mshrs          nan                       # average number of cycles each access was blocked
system.cpu0.icache.avg_blocked_cycles::no_targets          nan                       # average number of cycles each access was blocked
system.cpu0.icache.blocked::no_mshrs                0                       # number of cycles access was blocked
system.cpu0.icache.blocked::no_targets              0                       # number of cycles access was blocked
system.cpu0.icache.blocked_cycles::no_mshrs            0                       # number of cycles access was blocked
system.cpu0.icache.blocked_cycles::no_targets            0                       # number of cycles access was blocked
system.cpu0.icache.demand_accesses::.cpu0.inst     67564204                       # number of demand (read+write) accesses
system.cpu0.icache.demand_accesses::total     67564204                       # number of demand (read+write) accesses
system.cpu0.icache.demand_avg_miss_latency::.cpu0.inst 26553.968915                       # average overall miss latency
system.cpu0.icache.demand_avg_miss_latency::total 26553.968915                       # average overall miss latency
system.cpu0.icache.demand_avg_mshr_miss_latency::.cpu0.inst 24553.968915                       # average overall mshr miss latency
system.cpu0.icache.demand_avg_mshr_miss_latency::total 24553.968915                       # average overall mshr miss latency
system.cpu0.icache.demand_hits::.cpu0.inst     67338500                       # number of demand (read+write) hits
system.cpu0.icache.demand_hits::total        67338500                       # number of demand (read+write) hits
system.cpu0.icache.demand_miss_latency::.cpu0.inst   5993337000                       # number of demand (read+write) miss cycles
system.cpu0.icache.demand_miss_latency::total   5993337000                       # number of demand (read+write) miss cycles
system.cpu0.icache.demand_miss_rate::.cpu0.inst     0.003341                       # miss rate for demand accesses
system.cpu0.icache.demand_miss_rate::total     0.003341                       # miss rate for demand accesses
system.cpu0.icache.demand_misses::.cpu0.inst       225704                       # number of demand (read+write) misses
system.cpu0.icache.demand_misses::total        225704                       # number of demand (read+write) misses
system.cpu0.icache.demand_mshr_miss_latency::.cpu0.inst   5541929000                       # number of demand (read+write) MSHR miss cycles
system.cpu0.icache.demand_mshr_miss_latency::total   5541929000                       # number of demand (read+write) MSHR miss cycles
system.cpu0.icache.demand_mshr_miss_rate::.cpu0.inst     0.003341                       # mshr miss rate for demand accesses
system.cpu0.icache.demand_mshr_miss_rate::total     0.003341                       # mshr miss rate for demand accesses
system.cpu0.icache.demand_mshr_misses::.cpu0.inst       225704                       # number of demand (read+write) MSHR misses
system.cpu0.icache.demand_mshr_misses::total       225704                       # number of demand (read+write) MSHR misses
system.cpu0.icache.overall_accesses::.cpu0.inst     67564204                       # number of overall (read+write) accesses
system.cpu0.icache.overall_accesses::total     67564204                       # number of overall (read+write) accesses
system.cpu0.icache.overall_avg_miss_latency::.cpu0.inst 26553.968915                       # average overall miss latency
system.cpu0.icache.overall_avg_miss_latency::total 26553.968915                       # average overall miss latency
system.cpu0.icache.overall_avg_mshr_miss_latency::.cpu0.inst 24553.968915                       # average overall mshr miss latency
system.cpu0.icache.overall_avg_mshr_miss_latency::total 24553.968915                       # average overall mshr miss latency
system.cpu0.icache.overall_hits::.cpu0.inst     67338500                       # number of overall hits
system.cpu0.icache.overall_hits::total       67338500                       # number of overall hits
system.cpu0.icache.overall_miss_latency::.cpu0.inst   5993337000                       # number of overall miss cycles
system.cpu0.icache.overall_miss_latency::total   5993337000                       # number of overall miss cycles
system.cpu0.icache.overall_miss_rate::.cpu0.inst     0.003341                       # miss rate for overall accesses
system.cpu0.icache.overall_miss_rate::total     0.003341                       # miss rate for overall accesses
system.cpu0.icache.overall_misses::.cpu0.inst       225704                       # number of overall misses
system.cpu0.icache.overall_misses::total       225704                       # number of overall misses
system.cpu0.icache.overall_mshr_miss_latency::.cpu0.inst   5541929000                       # number of overall MSHR miss cycles
system.cpu0.icache.overall_mshr_miss_latency::total   5541929000                       # number of overall MSHR miss cycles
system.cpu0.icache.overall_mshr_miss_rate::.cpu0.inst     0.003341                       # mshr miss rate for overall accesses
system.cpu0.icache.overall_mshr_miss_rate::total     0.003341                       # mshr miss rate for overall accesses
system.cpu0.icache.overall_mshr_misses::.cpu0.inst       225704                       # number of overall MSHR misses
system.cpu0.icache.overall_mshr_misses::total       225704                       # number of overall MSHR misses
system.cpu0.icache.pwrStateResidencyTicks::UNDEFINED 186058435000                       # Cumulative time (in ticks) in various power states
system.cpu0.icache.replacements                225451                       # number of replacements
system.cpu0.icache.tags.age_task_id_blocks_1024::0            6                       # Occupied blocks per task id
system.cpu0.icache.tags.age_task_id_blocks_1024::3           10                       # Occupied blocks per task id
system.cpu0.icache.tags.age_task_id_blocks_1024::4          237                       # Occupied blocks per task id
system.cpu0.icache.tags.avg_refs           299.348722                       # Average number of references to valid blocks.
system.cpu0.icache.tags.data_accesses       135354112                       # Number of data accesses
system.cpu0.icache.tags.occ_blocks::.cpu0.inst   252.706837                       # Average occupied blocks per requestor
system.cpu0.icache.tags.occ_percent::.cpu0.inst     0.987136                       # Average percentage of cache occupancy
system.cpu0.icache.tags.occ_percent::total     0.987136                       # Average percentage of cache occupancy
system.cpu0.icache.tags.occ_task_id_blocks::1024          253                       # Occupied blocks per task id
system.cpu0.icache.tags.occ_task_id_percent::1024     0.988281                       # Percentage of cache occupancy per task id
system.cpu0.icache.tags.pwrStateResidencyTicks::UNDEFINED 186058435000                       # Cumulative time (in ticks) in various power states
system.cpu0.icache.tags.sampled_refs           225704                       # Sample count of references to valid blocks.
system.cpu0.icache.tags.tag_accesses        135354112                       # Number of tag accesses
system.cpu0.icache.tags.tagsinuse          252.706837                       # Cycle average of tags in use
system.cpu0.icache.tags.total_refs           67564204                       # Total number of references to valid blocks.
system.cpu0.icache.tags.warmup_cycle           107000                       # Cycle when the warmup percentage was hit.
system.cpu0.idle_fraction                           0                       # Percentage of idle cycles
system.cpu0.interrupts.clk_domain.clock         16000                       # Clock period in ticks
system.cpu0.interrupts.pwrStateResidencyTicks::UNDEFINED 186058435000                       # Cumulative time (in ticks) in various power states
system.cpu0.itb.rdAccesses                          0                       # TLB accesses on read requests
system.cpu0.itb.rdMisses                            0                       # TLB misses on read requests
system.cpu0.itb.walker.pwrStateResidencyTicks::UNDEFINED 186058435000                       # Cumulative time (in ticks) in various power states
system.cpu0.itb.wrAccesses                   67564204                       # TLB accesses on write requests
system.cpu0.itb.wrMisses                          137                       # TLB misses on write requests
system.cpu0.not_idle_fraction                       1                       # Percentage of non-idle cycles
system.cpu0.numCycles                       186058435                       # number of cpu cycles simulated
system.cpu0.numWorkItemsCompleted                   0                       # number of work items this cpu completed
system.cpu0.numWorkItemsStarted                     0                       # number of work items this cpu started
system.cpu0.num_busy_cycles                 186058435                       # Number of busy cycles
system.cpu0.num_cc_register_reads            57999789                       # number of times the CC registers were read
system.cpu0.num_cc_register_writes           29711192                       # number of times the CC registers were written
system.cpu0.num_conditional_control_insts      9157455                       # number of instructions that are conditional controls
system.cpu0.num_fp_alu_accesses               1222432                       # Number of float alu accesses
system.cpu0.num_fp_insts                      1222432                       # number of float instructions
system.cpu0.num_fp_register_reads             1373816                       # number of times the floating registers were read
system.cpu0.num_fp_register_writes             922801                       # number of times the floating registers were written
system.cpu0.num_func_calls                     950822                       # number of times a function call or return occured
system.cpu0.num_idle_cycles                         0                       # Number of idle cycles
system.cpu0.num_int_alu_accesses             92671260                       # Number of integer alu accesses
system.cpu0.num_int_insts                    92671260                       # number of integer instructions
system.cpu0.num_int_register_reads          179379720                       # number of times the integer registers were read
system.cpu0.num_int_register_writes          74049566                       # number of times the integer registers were written
system.cpu0.num_load_insts                   10889359                       # Number of load instructions
system.cpu0.num_mem_refs                     18163650                       # number of memory refs
system.cpu0.num_store_insts                   7274291                       # Number of store instructions
system.cpu0.num_vec_alu_accesses                    0                       # Number of vector alu accesses
system.cpu0.num_vec_insts                           0                       # number of vector instructions
system.cpu0.num_vec_register_reads                  0                       # number of times the vector registers were read
system.cpu0.num_vec_register_writes                 0                       # number of times the vector registers were written
system.cpu0.op_class::No_OpClass               166650      0.18%      0.18% # Class of executed instruction
system.cpu0.op_class::IntAlu                 74178542     79.41%     79.58% # Class of executed instruction
system.cpu0.op_class::IntMult                  223387      0.24%     79.82% # Class of executed instruction
system.cpu0.op_class::IntDiv                       21      0.00%     79.82% # Class of executed instruction
system.cpu0.op_class::FloatAdd                 117293      0.13%     79.95% # Class of executed instruction
system.cpu0.op_class::FloatCmp                      0      0.00%     79.95% # Class of executed instruction
system.cpu0.op_class::FloatCvt                      0      0.00%     79.95% # Class of executed instruction
system.cpu0.op_class::FloatMult                     0      0.00%     79.95% # Class of executed instruction
system.cpu0.op_class::FloatMultAcc                  0      0.00%     79.95% # Class of executed instruction
system.cpu0.op_class::FloatDiv                      0      0.00%     79.95% # Class of executed instruction
system.cpu0.op_class::FloatMisc                     0      0.00%     79.95% # Class of executed instruction
system.cpu0.op_class::FloatSqrt                     0      0.00%     79.95% # Class of executed instruction
system.cpu0.op_class::SimdAdd                     374      0.00%     79.95% # Class of executed instruction
system.cpu0.op_class::SimdAddAcc                    0      0.00%     79.95% # Class of executed instruction
system.cpu0.op_class::SimdAlu                     100      0.00%     79.95% # Class of executed instruction
system.cpu0.op_class::SimdCmp                       0      0.00%     79.95% # Class of executed instruction
system.cpu0.op_class::SimdCvt                  110402      0.12%     80.07% # Class of executed instruction
system.cpu0.op_class::SimdMisc                 455811      0.49%     80.56% # Class of executed instruction
system.cpu0.op_class::SimdMult                      0      0.00%     80.56% # Class of executed instruction
system.cpu0.op_class::SimdMultAcc                   0      0.00%     80.56% # Class of executed instruction
system.cpu0.op_class::SimdShift                   186      0.00%     80.56% # Class of executed instruction
system.cpu0.op_class::SimdShiftAcc                  0      0.00%     80.56% # Class of executed instruction
system.cpu0.op_class::SimdDiv                       0      0.00%     80.56% # Class of executed instruction
system.cpu0.op_class::SimdSqrt                      0      0.00%     80.56% # Class of executed instruction
system.cpu0.op_class::SimdFloatAdd                  0      0.00%     80.56% # Class of executed instruction
system.cpu0.op_class::SimdFloatAlu                  0      0.00%     80.56% # Class of executed instruction
system.cpu0.op_class::SimdFloatCmp                  0      0.00%     80.56% # Class of executed instruction
system.cpu0.op_class::SimdFloatCvt                  0      0.00%     80.56% # Class of executed instruction
system.cpu0.op_class::SimdFloatDiv                  0      0.00%     80.56% # Class of executed instruction
system.cpu0.op_class::SimdFloatMisc                 0      0.00%     80.56% # Class of executed instruction
system.cpu0.op_class::SimdFloatMult                 0      0.00%     80.56% # Class of executed instruction
system.cpu0.op_class::SimdFloatMultAcc              0      0.00%     80.56% # Class of executed instruction
system.cpu0.op_class::SimdFloatSqrt                 0      0.00%     80.56% # Class of executed instruction
system.cpu0.op_class::SimdReduceAdd                 0      0.00%     80.56% # Class of executed instruction
system.cpu0.op_class::SimdReduceAlu                 0      0.00%     80.56% # Class of executed instruction
system.cpu0.op_class::SimdReduceCmp                 0      0.00%     80.56% # Class of executed instruction
system.cpu0.op_class::SimdFloatReduceAdd            0      0.00%     80.56% # Class of executed instruction
system.cpu0.op_class::SimdFloatReduceCmp            0      0.00%     80.56% # Class of executed instruction
system.cpu0.op_class::SimdAes                       0      0.00%     80.56% # Class of executed instruction
system.cpu0.op_class::SimdAesMix                    0      0.00%     80.56% # Class of executed instruction
system.cpu0.op_class::SimdSha1Hash                  0      0.00%     80.56% # Class of executed instruction
system.cpu0.op_class::SimdSha1Hash2                 0      0.00%     80.56% # Class of executed instruction
system.cpu0.op_class::SimdSha256Hash                0      0.00%     80.56% # Class of executed instruction
system.cpu0.op_class::SimdSha256Hash2               0      0.00%     80.56% # Class of executed instruction
system.cpu0.op_class::SimdShaSigma2                 0      0.00%     80.56% # Class of executed instruction
system.cpu0.op_class::SimdShaSigma3                 0      0.00%     80.56% # Class of executed instruction
system.cpu0.op_class::SimdPredAlu                   0      0.00%     80.56% # Class of executed instruction
system.cpu0.op_class::MemRead                10590223     11.34%     91.89% # Class of executed instruction
system.cpu0.op_class::MemWrite                7085002      7.58%     99.48% # Class of executed instruction
system.cpu0.op_class::FloatMemRead             299136      0.32%     99.80% # Class of executed instruction
system.cpu0.op_class::FloatMemWrite            189289      0.20%    100.00% # Class of executed instruction
system.cpu0.op_class::IprAccess                     0      0.00%    100.00% # Class of executed instruction
system.cpu0.op_class::InstPrefetch                  0      0.00%    100.00% # Class of executed instruction
system.cpu0.op_class::total                  93416416                       # Class of executed instruction
system.cpu0.pwrStateResidencyTicks::ON   186058435000                       # Cumulative time (in ticks) in various power states
system.cpu0.workload.numSyscalls                   56                       # Number of system calls
system.cpu1.Branches                          2153148                       # Number of branches fetched
system.cpu1.committedInsts                   28225821                       # Number of instructions committed
system.cpu1.committedOps                     40182543                       # Number of ops (including micro ops) committed
system.cpu1.dcache.ReadReq_accesses::.cpu1.data      6043391                       # number of ReadReq accesses(hits+misses)
system.cpu1.dcache.ReadReq_accesses::total      6043391                       # number of ReadReq accesses(hits+misses)
system.cpu1.dcache.ReadReq_avg_miss_latency::.cpu1.data 128445.068172                       # average ReadReq miss latency
system.cpu1.dcache.ReadReq_avg_miss_latency::total 128445.068172                       # average ReadReq miss latency
system.cpu1.dcache.ReadReq_avg_mshr_miss_latency::.cpu1.data 126445.070800                       # average ReadReq mshr miss latency
system.cpu1.dcache.ReadReq_avg_mshr_miss_latency::total 126445.070800                       # average ReadReq mshr miss latency
system.cpu1.dcache.ReadReq_hits::.cpu1.data      5282375                       # number of ReadReq hits
system.cpu1.dcache.ReadReq_hits::total        5282375                       # number of ReadReq hits
system.cpu1.dcache.ReadReq_miss_latency::.cpu1.data  97748752000                       # number of ReadReq miss cycles
system.cpu1.dcache.ReadReq_miss_latency::total  97748752000                       # number of ReadReq miss cycles
system.cpu1.dcache.ReadReq_miss_rate::.cpu1.data     0.125925                       # miss rate for ReadReq accesses
system.cpu1.dcache.ReadReq_miss_rate::total     0.125925                       # miss rate for ReadReq accesses
system.cpu1.dcache.ReadReq_misses::.cpu1.data       761016                       # number of ReadReq misses
system.cpu1.dcache.ReadReq_misses::total       761016                       # number of ReadReq misses
system.cpu1.dcache.ReadReq_mshr_miss_latency::.cpu1.data  96226722000                       # number of ReadReq MSHR miss cycles
system.cpu1.dcache.ReadReq_mshr_miss_latency::total  96226722000                       # number of ReadReq MSHR miss cycles
system.cpu1.dcache.ReadReq_mshr_miss_rate::.cpu1.data     0.125925                       # mshr miss rate for ReadReq accesses
system.cpu1.dcache.ReadReq_mshr_miss_rate::total     0.125925                       # mshr miss rate for ReadReq accesses
system.cpu1.dcache.ReadReq_mshr_misses::.cpu1.data       761016                       # number of ReadReq MSHR misses
system.cpu1.dcache.ReadReq_mshr_misses::total       761016                       # number of ReadReq MSHR misses
system.cpu1.dcache.WriteReq_accesses::.cpu1.data      1877270                       # number of WriteReq accesses(hits+misses)
system.cpu1.dcache.WriteReq_accesses::total      1877270                       # number of WriteReq accesses(hits+misses)
system.cpu1.dcache.WriteReq_avg_miss_latency::.cpu1.data 94638.006839                       # average WriteReq miss latency
system.cpu1.dcache.WriteReq_avg_miss_latency::total 94638.006839                       # average WriteReq miss latency
system.cpu1.dcache.WriteReq_avg_mshr_miss_latency::.cpu1.data 92638.006839                       # average WriteReq mshr miss latency
system.cpu1.dcache.WriteReq_avg_mshr_miss_latency::total 92638.006839                       # average WriteReq mshr miss latency
system.cpu1.dcache.WriteReq_hits::.cpu1.data      1875223                       # number of WriteReq hits
system.cpu1.dcache.WriteReq_hits::total       1875223                       # number of WriteReq hits
system.cpu1.dcache.WriteReq_miss_latency::.cpu1.data    193724000                       # number of WriteReq miss cycles
system.cpu1.dcache.WriteReq_miss_latency::total    193724000                       # number of WriteReq miss cycles
system.cpu1.dcache.WriteReq_miss_rate::.cpu1.data     0.001090                       # miss rate for WriteReq accesses
system.cpu1.dcache.WriteReq_miss_rate::total     0.001090                       # miss rate for WriteReq accesses
system.cpu1.dcache.WriteReq_misses::.cpu1.data         2047                       # number of WriteReq misses
system.cpu1.dcache.WriteReq_misses::total         2047                       # number of WriteReq misses
system.cpu1.dcache.WriteReq_mshr_miss_latency::.cpu1.data    189630000                       # number of WriteReq MSHR miss cycles
system.cpu1.dcache.WriteReq_mshr_miss_latency::total    189630000                       # number of WriteReq MSHR miss cycles
system.cpu1.dcache.WriteReq_mshr_miss_rate::.cpu1.data     0.001090                       # mshr miss rate for WriteReq accesses
system.cpu1.dcache.WriteReq_mshr_miss_rate::total     0.001090                       # mshr miss rate for WriteReq accesses
system.cpu1.dcache.WriteReq_mshr_misses::.cpu1.data         2047                       # number of WriteReq MSHR misses
system.cpu1.dcache.WriteReq_mshr_misses::total         2047                       # number of WriteReq MSHR misses
system.cpu1.dcache.avg_blocked_cycles::no_mshrs          nan                       # average number of cycles each access was blocked
system.cpu1.dcache.avg_blocked_cycles::no_targets          nan                       # average number of cycles each access was blocked
system.cpu1.dcache.blocked::no_mshrs                0                       # number of cycles access was blocked
system.cpu1.dcache.blocked::no_targets              0                       # number of cycles access was blocked
system.cpu1.dcache.blocked_cycles::no_mshrs            0                       # number of cycles access was blocked
system.cpu1.dcache.blocked_cycles::no_targets            0                       # number of cycles access was blocked
system.cpu1.dcache.demand_accesses::.cpu1.data      7920661                       # number of demand (read+write) accesses
system.cpu1.dcache.demand_accesses::total      7920661                       # number of demand (read+write) accesses
system.cpu1.dcache.demand_avg_miss_latency::.cpu1.data 128354.377030                       # average overall miss latency
system.cpu1.dcache.demand_avg_miss_latency::total 128354.377030                       # average overall miss latency
system.cpu1.dcache.demand_avg_mshr_miss_latency::.cpu1.data 126354.379651                       # average overall mshr miss latency
system.cpu1.dcache.demand_avg_mshr_miss_latency::total 126354.379651                       # average overall mshr miss latency
system.cpu1.dcache.demand_hits::.cpu1.data      7157598                       # number of demand (read+write) hits
system.cpu1.dcache.demand_hits::total         7157598                       # number of demand (read+write) hits
system.cpu1.dcache.demand_miss_latency::.cpu1.data  97942476000                       # number of demand (read+write) miss cycles
system.cpu1.dcache.demand_miss_latency::total  97942476000                       # number of demand (read+write) miss cycles
system.cpu1.dcache.demand_miss_rate::.cpu1.data     0.096338                       # miss rate for demand accesses
system.cpu1.dcache.demand_miss_rate::total     0.096338                       # miss rate for demand accesses
system.cpu1.dcache.demand_misses::.cpu1.data       763063                       # number of demand (read+write) misses
system.cpu1.dcache.demand_misses::total        763063                       # number of demand (read+write) misses
system.cpu1.dcache.demand_mshr_miss_latency::.cpu1.data  96416352000                       # number of demand (read+write) MSHR miss cycles
system.cpu1.dcache.demand_mshr_miss_latency::total  96416352000                       # number of demand (read+write) MSHR miss cycles
system.cpu1.dcache.demand_mshr_miss_rate::.cpu1.data     0.096338                       # mshr miss rate for demand accesses
system.cpu1.dcache.demand_mshr_miss_rate::total     0.096338                       # mshr miss rate for demand accesses
system.cpu1.dcache.demand_mshr_misses::.cpu1.data       763063                       # number of demand (read+write) MSHR misses
system.cpu1.dcache.demand_mshr_misses::total       763063                       # number of demand (read+write) MSHR misses
system.cpu1.dcache.overall_accesses::.cpu1.data      7920661                       # number of overall (read+write) accesses
system.cpu1.dcache.overall_accesses::total      7920661                       # number of overall (read+write) accesses
system.cpu1.dcache.overall_avg_miss_latency::.cpu1.data 128354.377030                       # average overall miss latency
system.cpu1.dcache.overall_avg_miss_latency::total 128354.377030                       # average overall miss latency
system.cpu1.dcache.overall_avg_mshr_miss_latency::.cpu1.data 126354.379651                       # average overall mshr miss latency
system.cpu1.dcache.overall_avg_mshr_miss_latency::total 126354.379651                       # average overall mshr miss latency
system.cpu1.dcache.overall_hits::.cpu1.data      7157598                       # number of overall hits
system.cpu1.dcache.overall_hits::total        7157598                       # number of overall hits
system.cpu1.dcache.overall_miss_latency::.cpu1.data  97942476000                       # number of overall miss cycles
system.cpu1.dcache.overall_miss_latency::total  97942476000                       # number of overall miss cycles
system.cpu1.dcache.overall_miss_rate::.cpu1.data     0.096338                       # miss rate for overall accesses
system.cpu1.dcache.overall_miss_rate::total     0.096338                       # miss rate for overall accesses
system.cpu1.dcache.overall_misses::.cpu1.data       763063                       # number of overall misses
system.cpu1.dcache.overall_misses::total       763063                       # number of overall misses
system.cpu1.dcache.overall_mshr_miss_latency::.cpu1.data  96416352000                       # number of overall MSHR miss cycles
system.cpu1.dcache.overall_mshr_miss_latency::total  96416352000                       # number of overall MSHR miss cycles
system.cpu1.dcache.overall_mshr_miss_rate::.cpu1.data     0.096338                       # mshr miss rate for overall accesses
system.cpu1.dcache.overall_mshr_miss_rate::total     0.096338                       # mshr miss rate for overall accesses
system.cpu1.dcache.overall_mshr_misses::.cpu1.data       763063                       # number of overall MSHR misses
system.cpu1.dcache.overall_mshr_misses::total       763063                       # number of overall MSHR misses
system.cpu1.dcache.pwrStateResidencyTicks::UNDEFINED 186058435000                       # Cumulative time (in ticks) in various power states
system.cpu1.dcache.replacements                762038                       # number of replacements
system.cpu1.dcache.tags.age_task_id_blocks_1024::0           13                       # Occupied blocks per task id
system.cpu1.dcache.tags.age_task_id_blocks_1024::1          107                       # Occupied blocks per task id
system.cpu1.dcache.tags.age_task_id_blocks_1024::2          903                       # Occupied blocks per task id
system.cpu1.dcache.tags.age_task_id_blocks_1024::4            1                       # Occupied blocks per task id
system.cpu1.dcache.tags.avg_refs            10.380100                       # Average number of references to valid blocks.
system.cpu1.dcache.tags.data_accesses        16604384                       # Number of data accesses
system.cpu1.dcache.tags.occ_blocks::.cpu1.data  1022.841824                       # Average occupied blocks per requestor
system.cpu1.dcache.tags.occ_percent::.cpu1.data     0.998869                       # Average percentage of cache occupancy
system.cpu1.dcache.tags.occ_percent::total     0.998869                       # Average percentage of cache occupancy
system.cpu1.dcache.tags.occ_task_id_blocks::1024         1024                       # Occupied blocks per task id
system.cpu1.dcache.tags.occ_task_id_percent::1024            1                       # Percentage of cache occupancy per task id
system.cpu1.dcache.tags.pwrStateResidencyTicks::UNDEFINED 186058435000                       # Cumulative time (in ticks) in various power states
system.cpu1.dcache.tags.sampled_refs           763062                       # Sample count of references to valid blocks.
system.cpu1.dcache.tags.tag_accesses         16604384                       # Number of tag accesses
system.cpu1.dcache.tags.tagsinuse         1022.841824                       # Cycle average of tags in use
system.cpu1.dcache.tags.total_refs            7920660                       # Total number of references to valid blocks.
system.cpu1.dcache.tags.warmup_cycle           227000                       # Cycle when the warmup percentage was hit.
system.cpu1.dcache.writebacks::.writebacks       750927                       # number of writebacks
system.cpu1.dcache.writebacks::total           750927                       # number of writebacks
system.cpu1.dtb.rdAccesses                    6043391                       # TLB accesses on read requests
system.cpu1.dtb.rdMisses                        12529                       # TLB misses on read requests
system.cpu1.dtb.walker.pwrStateResidencyTicks::UNDEFINED 186058435000                       # Cumulative time (in ticks) in various power states
system.cpu1.dtb.wrAccesses                    1877270                       # TLB accesses on write requests
system.cpu1.dtb.wrMisses                           61                       # TLB misses on write requests
system.cpu1.icache.ReadReq_accesses::.cpu1.inst     36815208                       # number of ReadReq accesses(hits+misses)
system.cpu1.icache.ReadReq_accesses::total     36815208                       # number of ReadReq accesses(hits+misses)
system.cpu1.icache.ReadReq_avg_miss_latency::.cpu1.inst 83669.544365                       # average ReadReq miss latency
system.cpu1.icache.ReadReq_avg_miss_latency::total 83669.544365                       # average ReadReq miss latency
system.cpu1.icache.ReadReq_avg_mshr_miss_latency::.cpu1.inst 81669.544365                       # average ReadReq mshr miss latency
system.cpu1.icache.ReadReq_avg_mshr_miss_latency::total 81669.544365                       # average ReadReq mshr miss latency
system.cpu1.icache.ReadReq_hits::.cpu1.inst     36813123                       # number of ReadReq hits
system.cpu1.icache.ReadReq_hits::total       36813123                       # number of ReadReq hits
system.cpu1.icache.ReadReq_miss_latency::.cpu1.inst    174451000                       # number of ReadReq miss cycles
system.cpu1.icache.ReadReq_miss_latency::total    174451000                       # number of ReadReq miss cycles
system.cpu1.icache.ReadReq_miss_rate::.cpu1.inst     0.000057                       # miss rate for ReadReq accesses
system.cpu1.icache.ReadReq_miss_rate::total     0.000057                       # miss rate for ReadReq accesses
system.cpu1.icache.ReadReq_misses::.cpu1.inst         2085                       # number of ReadReq misses
system.cpu1.icache.ReadReq_misses::total         2085                       # number of ReadReq misses
system.cpu1.icache.ReadReq_mshr_miss_latency::.cpu1.inst    170281000                       # number of ReadReq MSHR miss cycles
system.cpu1.icache.ReadReq_mshr_miss_latency::total    170281000                       # number of ReadReq MSHR miss cycles
system.cpu1.icache.ReadReq_mshr_miss_rate::.cpu1.inst     0.000057                       # mshr miss rate for ReadReq accesses
system.cpu1.icache.ReadReq_mshr_miss_rate::total     0.000057                       # mshr miss rate for ReadReq accesses
system.cpu1.icache.ReadReq_mshr_misses::.cpu1.inst         2085                       # number of ReadReq MSHR misses
system.cpu1.icache.ReadReq_mshr_misses::total         2085                       # number of ReadReq MSHR misses
system.cpu1.icache.avg_blocked_cycles::no_mshrs          nan                       # average number of cycles each access was blocked
system.cpu1.icache.avg_blocked_cycles::no_targets          nan                       # average number of cycles each access was blocked
system.cpu1.icache.blocked::no_mshrs                0                       # number of cycles access was blocked
system.cpu1.icache.blocked::no_targets              0                       # number of cycles access was blocked
system.cpu1.icache.blocked_cycles::no_mshrs            0                       # number of cycles access was blocked
system.cpu1.icache.blocked_cycles::no_targets            0                       # number of cycles access was blocked
system.cpu1.icache.demand_accesses::.cpu1.inst     36815208                       # number of demand (read+write) accesses
system.cpu1.icache.demand_accesses::total     36815208                       # number of demand (read+write) accesses
system.cpu1.icache.demand_avg_miss_latency::.cpu1.inst 83669.544365                       # average overall miss latency
system.cpu1.icache.demand_avg_miss_latency::total 83669.544365                       # average overall miss latency
system.cpu1.icache.demand_avg_mshr_miss_latency::.cpu1.inst 81669.544365                       # average overall mshr miss latency
system.cpu1.icache.demand_avg_mshr_miss_latency::total 81669.544365                       # average overall mshr miss latency
system.cpu1.icache.demand_hits::.cpu1.inst     36813123                       # number of demand (read+write) hits
system.cpu1.icache.demand_hits::total        36813123                       # number of demand (read+write) hits
system.cpu1.icache.demand_miss_latency::.cpu1.inst    174451000                       # number of demand (read+write) miss cycles
system.cpu1.icache.demand_miss_latency::total    174451000                       # number of demand (read+write) miss cycles
system.cpu1.icache.demand_miss_rate::.cpu1.inst     0.000057                       # miss rate for demand accesses
system.cpu1.icache.demand_miss_rate::total     0.000057                       # miss rate for demand accesses
system.cpu1.icache.demand_misses::.cpu1.inst         2085                       # number of demand (read+write) misses
system.cpu1.icache.demand_misses::total          2085                       # number of demand (read+write) misses
system.cpu1.icache.demand_mshr_miss_latency::.cpu1.inst    170281000                       # number of demand (read+write) MSHR miss cycles
system.cpu1.icache.demand_mshr_miss_latency::total    170281000                       # number of demand (read+write) MSHR miss cycles
system.cpu1.icache.demand_mshr_miss_rate::.cpu1.inst     0.000057                       # mshr miss rate for demand accesses
system.cpu1.icache.demand_mshr_miss_rate::total     0.000057                       # mshr miss rate for demand accesses
system.cpu1.icache.demand_mshr_misses::.cpu1.inst         2085                       # number of demand (read+write) MSHR misses
system.cpu1.icache.demand_mshr_misses::total         2085                       # number of demand (read+write) MSHR misses
system.cpu1.icache.overall_accesses::.cpu1.inst     36815208                       # number of overall (read+write) accesses
system.cpu1.icache.overall_accesses::total     36815208                       # number of overall (read+write) accesses
system.cpu1.icache.overall_avg_miss_latency::.cpu1.inst 83669.544365                       # average overall miss latency
system.cpu1.icache.overall_avg_miss_latency::total 83669.544365                       # average overall miss latency
system.cpu1.icache.overall_avg_mshr_miss_latency::.cpu1.inst 81669.544365                       # average overall mshr miss latency
system.cpu1.icache.overall_avg_mshr_miss_latency::total 81669.544365                       # average overall mshr miss latency
system.cpu1.icache.overall_hits::.cpu1.inst     36813123                       # number of overall hits
system.cpu1.icache.overall_hits::total       36813123                       # number of overall hits
system.cpu1.icache.overall_miss_latency::.cpu1.inst    174451000                       # number of overall miss cycles
system.cpu1.icache.overall_miss_latency::total    174451000                       # number of overall miss cycles
system.cpu1.icache.overall_miss_rate::.cpu1.inst     0.000057                       # miss rate for overall accesses
system.cpu1.icache.overall_miss_rate::total     0.000057                       # miss rate for overall accesses
system.cpu1.icache.overall_misses::.cpu1.inst         2085                       # number of overall misses
system.cpu1.icache.overall_misses::total         2085                       # number of overall misses
system.cpu1.icache.overall_mshr_miss_latency::.cpu1.inst    170281000                       # number of overall MSHR miss cycles
system.cpu1.icache.overall_mshr_miss_latency::total    170281000                       # number of overall MSHR miss cycles
system.cpu1.icache.overall_mshr_miss_rate::.cpu1.inst     0.000057                       # mshr miss rate for overall accesses
system.cpu1.icache.overall_mshr_miss_rate::total     0.000057                       # mshr miss rate for overall accesses
system.cpu1.icache.overall_mshr_misses::.cpu1.inst         2085                       # number of overall MSHR misses
system.cpu1.icache.overall_mshr_misses::total         2085                       # number of overall MSHR misses
system.cpu1.icache.pwrStateResidencyTicks::UNDEFINED 186058435000                       # Cumulative time (in ticks) in various power states
system.cpu1.icache.replacements                  1829                       # number of replacements
system.cpu1.icache.tags.age_task_id_blocks_1024::4          256                       # Occupied blocks per task id
system.cpu1.icache.tags.avg_refs         17657.174101                       # Average number of references to valid blocks.
system.cpu1.icache.tags.data_accesses        73632501                       # Number of data accesses
system.cpu1.icache.tags.occ_blocks::.cpu1.inst   255.846619                       # Average occupied blocks per requestor
system.cpu1.icache.tags.occ_percent::.cpu1.inst     0.999401                       # Average percentage of cache occupancy
system.cpu1.icache.tags.occ_percent::total     0.999401                       # Average percentage of cache occupancy
system.cpu1.icache.tags.occ_task_id_blocks::1024          256                       # Occupied blocks per task id
system.cpu1.icache.tags.occ_task_id_percent::1024            1                       # Percentage of cache occupancy per task id
system.cpu1.icache.tags.pwrStateResidencyTicks::UNDEFINED 186058435000                       # Cumulative time (in ticks) in various power states
system.cpu1.icache.tags.sampled_refs             2085                       # Sample count of references to valid blocks.
system.cpu1.icache.tags.tag_accesses         73632501                       # Number of tag accesses
system.cpu1.icache.tags.tagsinuse          255.846619                       # Cycle average of tags in use
system.cpu1.icache.tags.total_refs           36815208                       # Total number of references to valid blocks.
system.cpu1.icache.tags.warmup_cycle           113000                       # Cycle when the warmup percentage was hit.
system.cpu1.idle_fraction                           0                       # Percentage of idle cycles
system.cpu1.interrupts.clk_domain.clock         16000                       # Clock period in ticks
system.cpu1.interrupts.pwrStateResidencyTicks::UNDEFINED 186058435000                       # Cumulative time (in ticks) in various power states
system.cpu1.itb.rdAccesses                          0                       # TLB accesses on read requests
system.cpu1.itb.rdMisses                            0                       # TLB misses on read requests
system.cpu1.itb.walker.pwrStateResidencyTicks::UNDEFINED 186058435000                       # Cumulative time (in ticks) in various power states
system.cpu1.itb.wrAccesses                   36815208                       # TLB accesses on write requests
system.cpu1.itb.wrMisses                          242                       # TLB misses on write requests
system.cpu1.not_idle_fraction                       1                       # Percentage of non-idle cycles
system.cpu1.numCycles                       186058331                       # number of cpu cycles simulated
system.cpu1.numWorkItemsCompleted                   0                       # number of work items this cpu completed
system.cpu1.numWorkItemsStarted                     0                       # number of work items this cpu started
system.cpu1.num_busy_cycles                 186058331                       # Number of busy cycles
system.cpu1.num_cc_register_reads            11462018                       # number of times the CC registers were read
system.cpu1.num_cc_register_writes           21852046                       # number of times the CC registers were written
system.cpu1.num_conditional_control_insts      1261157                       # number of instructions that are conditional controls
system.cpu1.num_fp_alu_accesses                 69763                       # Number of float alu accesses
system.cpu1.num_fp_insts                        69763                       # number of float instructions
system.cpu1.num_fp_register_reads               96543                       # number of times the floating registers were read
system.cpu1.num_fp_register_writes              51076                       # number of times the floating registers were written
system.cpu1.num_func_calls                      17684                       # number of times a function call or return occured
system.cpu1.num_idle_cycles                         0                       # Number of idle cycles
system.cpu1.num_int_alu_accesses             40131246                       # Number of integer alu accesses
system.cpu1.num_int_insts                    40131246                       # number of integer instructions
system.cpu1.num_int_register_reads           82518392                       # number of times the integer registers were read
system.cpu1.num_int_register_writes          36160996                       # number of times the integer registers were written
system.cpu1.num_load_insts                    6043368                       # Number of load instructions
system.cpu1.num_mem_refs                      7920632                       # number of memory refs
system.cpu1.num_store_insts                   1877264                       # Number of store instructions
system.cpu1.num_vec_alu_accesses                    0                       # Number of vector alu accesses
system.cpu1.num_vec_insts                           0                       # number of vector instructions
system.cpu1.num_vec_register_reads                  0                       # number of times the vector registers were read
system.cpu1.num_vec_register_writes                 0                       # number of times the vector registers were written
system.cpu1.op_class::No_OpClass                18860      0.05%      0.05% # Class of executed instruction
system.cpu1.op_class::IntAlu                 32169418     80.06%     80.11% # Class of executed instruction
system.cpu1.op_class::IntMult                      27      0.00%     80.11% # Class of executed instruction
system.cpu1.op_class::IntDiv                    34400      0.09%     80.19% # Class of executed instruction
system.cpu1.op_class::FloatAdd                   2710      0.01%     80.20% # Class of executed instruction
system.cpu1.op_class::FloatCmp                      0      0.00%     80.20% # Class of executed instruction
system.cpu1.op_class::FloatCvt                   1088      0.00%     80.20% # Class of executed instruction
system.cpu1.op_class::FloatMult                     0      0.00%     80.20% # Class of executed instruction
system.cpu1.op_class::FloatMultAcc                  0      0.00%     80.20% # Class of executed instruction
system.cpu1.op_class::FloatDiv                      0      0.00%     80.20% # Class of executed instruction
system.cpu1.op_class::FloatMisc                     0      0.00%     80.20% # Class of executed instruction
system.cpu1.op_class::FloatSqrt                     0      0.00%     80.20% # Class of executed instruction
system.cpu1.op_class::SimdAdd                    5968      0.01%     80.22% # Class of executed instruction
system.cpu1.op_class::SimdAddAcc                    0      0.00%     80.22% # Class of executed instruction
system.cpu1.op_class::SimdAlu                   10785      0.03%     80.24% # Class of executed instruction
system.cpu1.op_class::SimdCmp                       0      0.00%     80.24% # Class of executed instruction
system.cpu1.op_class::SimdCvt                   11614      0.03%     80.27% # Class of executed instruction
system.cpu1.op_class::SimdMisc                   6254      0.02%     80.29% # Class of executed instruction
system.cpu1.op_class::SimdMult                      0      0.00%     80.29% # Class of executed instruction
system.cpu1.op_class::SimdMultAcc                   0      0.00%     80.29% # Class of executed instruction
system.cpu1.op_class::SimdShift                   787      0.00%     80.29% # Class of executed instruction
system.cpu1.op_class::SimdShiftAcc                  0      0.00%     80.29% # Class of executed instruction
system.cpu1.op_class::SimdDiv                       0      0.00%     80.29% # Class of executed instruction
system.cpu1.op_class::SimdSqrt                      0      0.00%     80.29% # Class of executed instruction
system.cpu1.op_class::SimdFloatAdd                  0      0.00%     80.29% # Class of executed instruction
system.cpu1.op_class::SimdFloatAlu                  0      0.00%     80.29% # Class of executed instruction
system.cpu1.op_class::SimdFloatCmp                  0      0.00%     80.29% # Class of executed instruction
system.cpu1.op_class::SimdFloatCvt                  0      0.00%     80.29% # Class of executed instruction
system.cpu1.op_class::SimdFloatDiv                  0      0.00%     80.29% # Class of executed instruction
system.cpu1.op_class::SimdFloatMisc                 0      0.00%     80.29% # Class of executed instruction
system.cpu1.op_class::SimdFloatMult                 0      0.00%     80.29% # Class of executed instruction
system.cpu1.op_class::SimdFloatMultAcc              0      0.00%     80.29% # Class of executed instruction
system.cpu1.op_class::SimdFloatSqrt                 0      0.00%     80.29% # Class of executed instruction
system.cpu1.op_class::SimdReduceAdd                 0      0.00%     80.29% # Class of executed instruction
system.cpu1.op_class::SimdReduceAlu                 0      0.00%     80.29% # Class of executed instruction
system.cpu1.op_class::SimdReduceCmp                 0      0.00%     80.29% # Class of executed instruction
system.cpu1.op_class::SimdFloatReduceAdd            0      0.00%     80.29% # Class of executed instruction
system.cpu1.op_class::SimdFloatReduceCmp            0      0.00%     80.29% # Class of executed instruction
system.cpu1.op_class::SimdAes                       0      0.00%     80.29% # Class of executed instruction
system.cpu1.op_class::SimdAesMix                    0      0.00%     80.29% # Class of executed instruction
system.cpu1.op_class::SimdSha1Hash                  0      0.00%     80.29% # Class of executed instruction
system.cpu1.op_class::SimdSha1Hash2                 0      0.00%     80.29% # Class of executed instruction
system.cpu1.op_class::SimdSha256Hash                0      0.00%     80.29% # Class of executed instruction
system.cpu1.op_class::SimdSha256Hash2               0      0.00%     80.29% # Class of executed instruction
system.cpu1.op_class::SimdShaSigma2                 0      0.00%     80.29% # Class of executed instruction
system.cpu1.op_class::SimdShaSigma3                 0      0.00%     80.29% # Class of executed instruction
system.cpu1.op_class::SimdPredAlu                   0      0.00%     80.29% # Class of executed instruction
system.cpu1.op_class::MemRead                 6025154     14.99%     95.28% # Class of executed instruction
system.cpu1.op_class::MemWrite                1865585      4.64%     99.93% # Class of executed instruction
system.cpu1.op_class::FloatMemRead              18214      0.05%     99.97% # Class of executed instruction
system.cpu1.op_class::FloatMemWrite             11679      0.03%    100.00% # Class of executed instruction
system.cpu1.op_class::IprAccess                     0      0.00%    100.00% # Class of executed instruction
system.cpu1.op_class::InstPrefetch                  0      0.00%    100.00% # Class of executed instruction
system.cpu1.op_class::total                  40182543                       # Class of executed instruction
system.cpu1.pwrStateResidencyTicks::ON   186058435000                       # Cumulative time (in ticks) in various power states
system.cpu1.workload.numSyscalls                   56                       # Number of system calls
system.cpu2.Branches                          2152303                       # Number of branches fetched
system.cpu2.committedInsts                   28213612                       # Number of instructions committed
system.cpu2.committedOps                     40165460                       # Number of ops (including micro ops) committed
system.cpu2.dcache.ReadReq_accesses::.cpu2.data      6040801                       # number of ReadReq accesses(hits+misses)
system.cpu2.dcache.ReadReq_accesses::total      6040801                       # number of ReadReq accesses(hits+misses)
system.cpu2.dcache.ReadReq_avg_miss_latency::.cpu2.data 128521.088332                       # average ReadReq miss latency
system.cpu2.dcache.ReadReq_avg_miss_latency::total 128521.088332                       # average ReadReq miss latency
system.cpu2.dcache.ReadReq_avg_mshr_miss_latency::.cpu2.data 126521.090960                       # average ReadReq mshr miss latency
system.cpu2.dcache.ReadReq_avg_mshr_miss_latency::total 126521.090960                       # average ReadReq mshr miss latency
system.cpu2.dcache.ReadReq_hits::.cpu2.data      5279930                       # number of ReadReq hits
system.cpu2.dcache.ReadReq_hits::total        5279930                       # number of ReadReq hits
system.cpu2.dcache.ReadReq_miss_latency::.cpu2.data  97787969000                       # number of ReadReq miss cycles
system.cpu2.dcache.ReadReq_miss_latency::total  97787969000                       # number of ReadReq miss cycles
system.cpu2.dcache.ReadReq_miss_rate::.cpu2.data     0.125955                       # miss rate for ReadReq accesses
system.cpu2.dcache.ReadReq_miss_rate::total     0.125955                       # miss rate for ReadReq accesses
system.cpu2.dcache.ReadReq_misses::.cpu2.data       760871                       # number of ReadReq misses
system.cpu2.dcache.ReadReq_misses::total       760871                       # number of ReadReq misses
system.cpu2.dcache.ReadReq_mshr_miss_latency::.cpu2.data  96266229000                       # number of ReadReq MSHR miss cycles
system.cpu2.dcache.ReadReq_mshr_miss_latency::total  96266229000                       # number of ReadReq MSHR miss cycles
system.cpu2.dcache.ReadReq_mshr_miss_rate::.cpu2.data     0.125955                       # mshr miss rate for ReadReq accesses
system.cpu2.dcache.ReadReq_mshr_miss_rate::total     0.125955                       # mshr miss rate for ReadReq accesses
system.cpu2.dcache.ReadReq_mshr_misses::.cpu2.data       760871                       # number of ReadReq MSHR misses
system.cpu2.dcache.ReadReq_mshr_misses::total       760871                       # number of ReadReq MSHR misses
system.cpu2.dcache.WriteReq_accesses::.cpu2.data      1876474                       # number of WriteReq accesses(hits+misses)
system.cpu2.dcache.WriteReq_accesses::total      1876474                       # number of WriteReq accesses(hits+misses)
system.cpu2.dcache.WriteReq_avg_miss_latency::.cpu2.data 91294.588235                       # average WriteReq miss latency
system.cpu2.dcache.WriteReq_avg_miss_latency::total 91294.588235                       # average WriteReq miss latency
system.cpu2.dcache.WriteReq_avg_mshr_miss_latency::.cpu2.data 89294.588235                       # average WriteReq mshr miss latency
system.cpu2.dcache.WriteReq_avg_mshr_miss_latency::total 89294.588235                       # average WriteReq mshr miss latency
system.cpu2.dcache.WriteReq_hits::.cpu2.data      1874349                       # number of WriteReq hits
system.cpu2.dcache.WriteReq_hits::total       1874349                       # number of WriteReq hits
system.cpu2.dcache.WriteReq_miss_latency::.cpu2.data    194001000                       # number of WriteReq miss cycles
system.cpu2.dcache.WriteReq_miss_latency::total    194001000                       # number of WriteReq miss cycles
system.cpu2.dcache.WriteReq_miss_rate::.cpu2.data     0.001132                       # miss rate for WriteReq accesses
system.cpu2.dcache.WriteReq_miss_rate::total     0.001132                       # miss rate for WriteReq accesses
system.cpu2.dcache.WriteReq_misses::.cpu2.data         2125                       # number of WriteReq misses
system.cpu2.dcache.WriteReq_misses::total         2125                       # number of WriteReq misses
system.cpu2.dcache.WriteReq_mshr_miss_latency::.cpu2.data    189751000                       # number of WriteReq MSHR miss cycles
system.cpu2.dcache.WriteReq_mshr_miss_latency::total    189751000                       # number of WriteReq MSHR miss cycles
system.cpu2.dcache.WriteReq_mshr_miss_rate::.cpu2.data     0.001132                       # mshr miss rate for WriteReq accesses
system.cpu2.dcache.WriteReq_mshr_miss_rate::total     0.001132                       # mshr miss rate for WriteReq accesses
system.cpu2.dcache.WriteReq_mshr_misses::.cpu2.data         2125                       # number of WriteReq MSHR misses
system.cpu2.dcache.WriteReq_mshr_misses::total         2125                       # number of WriteReq MSHR misses
system.cpu2.dcache.avg_blocked_cycles::no_mshrs          nan                       # average number of cycles each access was blocked
system.cpu2.dcache.avg_blocked_cycles::no_targets          nan                       # average number of cycles each access was blocked
system.cpu2.dcache.blocked::no_mshrs                0                       # number of cycles access was blocked
system.cpu2.dcache.blocked::no_targets              0                       # number of cycles access was blocked
system.cpu2.dcache.blocked_cycles::no_mshrs            0                       # number of cycles access was blocked
system.cpu2.dcache.blocked_cycles::no_targets            0                       # number of cycles access was blocked
system.cpu2.dcache.demand_accesses::.cpu2.data      7917275                       # number of demand (read+write) accesses
system.cpu2.dcache.demand_accesses::total      7917275                       # number of demand (read+write) accesses
system.cpu2.dcache.demand_avg_miss_latency::.cpu2.data 128417.409790                       # average overall miss latency
system.cpu2.dcache.demand_avg_miss_latency::total 128417.409790                       # average overall miss latency
system.cpu2.dcache.demand_avg_mshr_miss_latency::.cpu2.data 126417.412411                       # average overall mshr miss latency
system.cpu2.dcache.demand_avg_mshr_miss_latency::total 126417.412411                       # average overall mshr miss latency
system.cpu2.dcache.demand_hits::.cpu2.data      7154279                       # number of demand (read+write) hits
system.cpu2.dcache.demand_hits::total         7154279                       # number of demand (read+write) hits
system.cpu2.dcache.demand_miss_latency::.cpu2.data  97981970000                       # number of demand (read+write) miss cycles
system.cpu2.dcache.demand_miss_latency::total  97981970000                       # number of demand (read+write) miss cycles
system.cpu2.dcache.demand_miss_rate::.cpu2.data     0.096371                       # miss rate for demand accesses
system.cpu2.dcache.demand_miss_rate::total     0.096371                       # miss rate for demand accesses
system.cpu2.dcache.demand_misses::.cpu2.data       762996                       # number of demand (read+write) misses
system.cpu2.dcache.demand_misses::total        762996                       # number of demand (read+write) misses
system.cpu2.dcache.demand_mshr_miss_latency::.cpu2.data  96455980000                       # number of demand (read+write) MSHR miss cycles
system.cpu2.dcache.demand_mshr_miss_latency::total  96455980000                       # number of demand (read+write) MSHR miss cycles
system.cpu2.dcache.demand_mshr_miss_rate::.cpu2.data     0.096371                       # mshr miss rate for demand accesses
system.cpu2.dcache.demand_mshr_miss_rate::total     0.096371                       # mshr miss rate for demand accesses
system.cpu2.dcache.demand_mshr_misses::.cpu2.data       762996                       # number of demand (read+write) MSHR misses
system.cpu2.dcache.demand_mshr_misses::total       762996                       # number of demand (read+write) MSHR misses
system.cpu2.dcache.overall_accesses::.cpu2.data      7917275                       # number of overall (read+write) accesses
system.cpu2.dcache.overall_accesses::total      7917275                       # number of overall (read+write) accesses
system.cpu2.dcache.overall_avg_miss_latency::.cpu2.data 128417.409790                       # average overall miss latency
system.cpu2.dcache.overall_avg_miss_latency::total 128417.409790                       # average overall miss latency
system.cpu2.dcache.overall_avg_mshr_miss_latency::.cpu2.data 126417.412411                       # average overall mshr miss latency
system.cpu2.dcache.overall_avg_mshr_miss_latency::total 126417.412411                       # average overall mshr miss latency
system.cpu2.dcache.overall_hits::.cpu2.data      7154279                       # number of overall hits
system.cpu2.dcache.overall_hits::total        7154279                       # number of overall hits
system.cpu2.dcache.overall_miss_latency::.cpu2.data  97981970000                       # number of overall miss cycles
system.cpu2.dcache.overall_miss_latency::total  97981970000                       # number of overall miss cycles
system.cpu2.dcache.overall_miss_rate::.cpu2.data     0.096371                       # miss rate for overall accesses
system.cpu2.dcache.overall_miss_rate::total     0.096371                       # miss rate for overall accesses
system.cpu2.dcache.overall_misses::.cpu2.data       762996                       # number of overall misses
system.cpu2.dcache.overall_misses::total       762996                       # number of overall misses
system.cpu2.dcache.overall_mshr_miss_latency::.cpu2.data  96455980000                       # number of overall MSHR miss cycles
system.cpu2.dcache.overall_mshr_miss_latency::total  96455980000                       # number of overall MSHR miss cycles
system.cpu2.dcache.overall_mshr_miss_rate::.cpu2.data     0.096371                       # mshr miss rate for overall accesses
system.cpu2.dcache.overall_mshr_miss_rate::total     0.096371                       # mshr miss rate for overall accesses
system.cpu2.dcache.overall_mshr_misses::.cpu2.data       762996                       # number of overall MSHR misses
system.cpu2.dcache.overall_mshr_misses::total       762996                       # number of overall MSHR misses
system.cpu2.dcache.pwrStateResidencyTicks::UNDEFINED 186058435000                       # Cumulative time (in ticks) in various power states
system.cpu2.dcache.replacements                761971                       # number of replacements
system.cpu2.dcache.tags.age_task_id_blocks_1024::0           12                       # Occupied blocks per task id
system.cpu2.dcache.tags.age_task_id_blocks_1024::1          109                       # Occupied blocks per task id
system.cpu2.dcache.tags.age_task_id_blocks_1024::2          902                       # Occupied blocks per task id
system.cpu2.dcache.tags.age_task_id_blocks_1024::4            1                       # Occupied blocks per task id
[...]
system.mem_ctrl.wrPerTurnAround::16              9632      8.04%      8.04% # Writes before turning the bus around for reads
system.mem_ctrl.wrPerTurnAround::17              2786      2.32%     10.36% # Writes before turning the bus around for reads
system.mem_ctrl.wrPerTurnAround::18             29653     24.74%     35.10% # Writes before turning the bus around for reads
system.mem_ctrl.wrPerTurnAround::19             21767     18.16%     53.26% # Writes before turning the bus around for reads
system.mem_ctrl.wrPerTurnAround::20             28788     24.02%     77.27% # Writes before turning the bus around for reads
system.mem_ctrl.wrPerTurnAround::21             23022     19.21%     96.48% # Writes before turning the bus around for reads
system.mem_ctrl.wrPerTurnAround::22              2308      1.93%     98.40% # Writes before turning the bus around for reads
system.mem_ctrl.wrPerTurnAround::23              1148      0.96%     99.36% # Writes before turning the bus around for reads
system.mem_ctrl.wrPerTurnAround::24               393      0.33%     99.69% # Writes before turning the bus around for reads
system.mem_ctrl.wrPerTurnAround::25               201      0.17%     99.85% # Writes before turning the bus around for reads
system.mem_ctrl.wrPerTurnAround::26               128      0.11%     99.96% # Writes before turning the bus around for reads
system.mem_ctrl.wrPerTurnAround::27                43      0.04%    100.00% # Writes before turning the bus around for reads
system.mem_ctrl.wrPerTurnAround::28                 2      0.00%    100.00% # Writes before turning the bus around for reads
system.mem_ctrl.wrPerTurnAround::29                 1      0.00%    100.00% # Writes before turning the bus around for reads
system.mem_ctrl.wrPerTurnAround::total         119872                       # Writes before turning the bus around for reads
system.mem_ctrl.wrQLenPdf::0                        1                       # What write queue length does an incoming req see
system.mem_ctrl.wrQLenPdf::1                        1                       # What write queue length does an incoming req see
system.mem_ctrl.wrQLenPdf::2                        1                       # What write queue length does an incoming req see
system.mem_ctrl.wrQLenPdf::3                        1                       # What write queue length does an incoming req see
system.mem_ctrl.wrQLenPdf::4                        1                       # What write queue length does an incoming req see
system.mem_ctrl.wrQLenPdf::5                        1                       # What write queue length does an incoming req see
system.mem_ctrl.wrQLenPdf::6                        1                       # What write queue length does an incoming req see
system.mem_ctrl.wrQLenPdf::7                        1                       # What write queue length does an incoming req see
system.mem_ctrl.wrQLenPdf::8                        1                       # What write queue length does an incoming req see
system.mem_ctrl.wrQLenPdf::9                        1                       # What write queue length does an incoming req see
system.mem_ctrl.wrQLenPdf::10                       1                       # What write queue length does an incoming req see
system.mem_ctrl.wrQLenPdf::11                       1                       # What write queue length does an incoming req see
system.mem_ctrl.wrQLenPdf::12                       1                       # What write queue length does an incoming req see
system.mem_ctrl.wrQLenPdf::13                       1                       # What write queue length does an incoming req see
system.mem_ctrl.wrQLenPdf::14                       1                       # What write queue length does an incoming req see
system.mem_ctrl.wrQLenPdf::15                  103872                       # What write queue length does an incoming req see
system.mem_ctrl.wrQLenPdf::16                  108416                       # What write queue length does an incoming req see
system.mem_ctrl.wrQLenPdf::17                  114933                       # What write queue length does an incoming req see
system.mem_ctrl.wrQLenPdf::18                  118667                       # What write queue length does an incoming req see
system.mem_ctrl.wrQLenPdf::19                  121563                       # What write queue length does an incoming req see
system.mem_ctrl.wrQLenPdf::20                  124382                       # What write queue length does an incoming req see
system.mem_ctrl.wrQLenPdf::21                  127338                       # What write queue length does an incoming req see
system.mem_ctrl.wrQLenPdf::22                  131008                       # What write queue length does an incoming req see
system.mem_ctrl.wrQLenPdf::23                  133094                       # What write queue length does an incoming req see
system.mem_ctrl.wrQLenPdf::24                  139103                       # What write queue length does an incoming req see
system.mem_ctrl.wrQLenPdf::25                  141585                       # What write queue length does an incoming req see
system.mem_ctrl.wrQLenPdf::26                  149260                       # What write queue length does an incoming req see
system.mem_ctrl.wrQLenPdf::27                  148101                       # What write queue length does an incoming req see
system.mem_ctrl.wrQLenPdf::28                  145670                       # What write queue length does an incoming req see
system.mem_ctrl.wrQLenPdf::29                  133434                       # What write queue length does an incoming req see
system.mem_ctrl.wrQLenPdf::30                  120266                       # What write queue length does an incoming req see
system.mem_ctrl.wrQLenPdf::31                  120100                       # What write queue length does an incoming req see
system.mem_ctrl.wrQLenPdf::32                  120157                       # What write queue length does an incoming req see
system.mem_ctrl.wrQLenPdf::33                    1646                       # What write queue length does an incoming req see
system.mem_ctrl.wrQLenPdf::34                    1065                       # What write queue length does an incoming req see
system.mem_ctrl.wrQLenPdf::35                     536                       # What write queue length does an incoming req see
system.mem_ctrl.wrQLenPdf::36                      37                       # What write queue length does an incoming req see
system.mem_ctrl.wrQLenPdf::37                      12                       # What write queue length does an incoming req see
system.mem_ctrl.wrQLenPdf::38                       1                       # What write queue length does an incoming req see
system.mem_ctrl.wrQLenPdf::39                       0                       # What write queue length does an incoming req see
system.mem_ctrl.wrQLenPdf::40                       0                       # What write queue length does an incoming req see
system.mem_ctrl.wrQLenPdf::41                       0                       # What write queue length does an incoming req see
system.mem_ctrl.wrQLenPdf::42                       0                       # What write queue length does an incoming req see
system.mem_ctrl.wrQLenPdf::43                       0                       # What write queue length does an incoming req see
system.mem_ctrl.wrQLenPdf::44                       0                       # What write queue length does an incoming req see
system.mem_ctrl.wrQLenPdf::45                       0                       # What write queue length does an incoming req see
system.mem_ctrl.wrQLenPdf::46                       0                       # What write queue length does an incoming req see
system.mem_ctrl.wrQLenPdf::47                       0                       # What write queue length does an incoming req see
system.mem_ctrl.wrQLenPdf::48                       0                       # What write queue length does an incoming req see
system.mem_ctrl.wrQLenPdf::49                       0                       # What write queue length does an incoming req see
system.mem_ctrl.wrQLenPdf::50                       0                       # What write queue length does an incoming req see
system.mem_ctrl.wrQLenPdf::51                       0                       # What write queue length does an incoming req see
system.mem_ctrl.wrQLenPdf::52                       0                       # What write queue length does an incoming req see
system.mem_ctrl.wrQLenPdf::53                       0                       # What write queue length does an incoming req see
system.mem_ctrl.wrQLenPdf::54                       0                       # What write queue length does an incoming req see
system.mem_ctrl.wrQLenPdf::55                       0                       # What write queue length does an incoming req see
system.mem_ctrl.wrQLenPdf::56                       0                       # What write queue length does an incoming req see
system.mem_ctrl.wrQLenPdf::57                       0                       # What write queue length does an incoming req see
system.mem_ctrl.wrQLenPdf::58                       0                       # What write queue length does an incoming req see
system.mem_ctrl.wrQLenPdf::59                       0                       # What write queue length does an incoming req see
system.mem_ctrl.wrQLenPdf::60                       0                       # What write queue length does an incoming req see
system.mem_ctrl.wrQLenPdf::61                       0                       # What write queue length does an incoming req see
system.mem_ctrl.wrQLenPdf::62                       0                       # What write queue length does an incoming req see
system.mem_ctrl.wrQLenPdf::63                       0                       # What write queue length does an incoming req see
system.mem_ctrl.writeBursts                   2304261                       # Number of DRAM write bursts, including those merged in the write queue
system.mem_ctrl.writePktSize::0                     0                       # Write request sizes (log2)
system.mem_ctrl.writePktSize::1                     0                       # Write request sizes (log2)
system.mem_ctrl.writePktSize::2                     0                       # Write request sizes (log2)
system.mem_ctrl.writePktSize::3                     0                       # Write request sizes (log2)
system.mem_ctrl.writePktSize::4                     0                       # Write request sizes (log2)
system.mem_ctrl.writePktSize::5                     0                       # Write request sizes (log2)
system.mem_ctrl.writePktSize::6               2304261                       # Write request sizes (log2)
system.mem_ctrl.writeReqs                     2304261                       # Number of write requests accepted
system.mem_ctrl.writeRowHitRate                 52.01                       # Row buffer hit rate for writes
system.mem_ctrl.writeRowHits                  1198355                       # Number of row buffer hits during writes
system.mem_ctrl_0.actBackEnergy           83989830030                       # Energy for active background per rank (pJ)
system.mem_ctrl_0.actEnergy               12243964740                       # Energy for activate commands per rank (pJ)
system.mem_ctrl_0.actPowerDownEnergy                0                       # Energy for active power-down per rank (pJ)
system.mem_ctrl_0.averagePower             712.508514                       # Core power per rank (mW)
system.mem_ctrl_0.memoryStateTime::IDLE     342172000                       # Time in different power states
system.mem_ctrl_0.memoryStateTime::REF     6212700000                       # Time in different power states
system.mem_ctrl_0.memoryStateTime::SREF             0                       # Time in different power states
system.mem_ctrl_0.memoryStateTime::PRE_PDN            0                       # Time in different power states
system.mem_ctrl_0.memoryStateTime::ACT   179503563000                       # Time in different power states
system.mem_ctrl_0.memoryStateTime::ACT_PDN            0                       # Time in different power states
system.mem_ctrl_0.preBackEnergy             718161120                       # Energy for precharge background per rank (pJ)
system.mem_ctrl_0.preEnergy                6507802620                       # Energy for precharge commands per rank (pJ)
system.mem_ctrl_0.prePowerDownEnergy                0                       # Energy for precharge power-down per rank (pJ)
system.mem_ctrl_0.readEnergy               8399010480                       # Energy for read commands per rank (pJ)
system.mem_ctrl_0.refreshEnergy          14686822800.000002                       # Energy for refresh commands per rank (pJ)
system.mem_ctrl_0.selfRefreshEnergy                 0                       # Energy for self refresh per rank (pJ)
system.mem_ctrl_0.totalEnergy            132568218990                       # Total energy per rank (pJ)
system.mem_ctrl_0.totalIdleTime                     0                       # Total Idle time Per DRAM Rank
system.mem_ctrl_0.writeEnergy              6022627200                       # Energy for write commands per rank (pJ)
system.mem_ctrl_1.actBackEnergy           83968955490                       # Energy for active background per rank (pJ)
system.mem_ctrl_1.actEnergy               12223815660                       # Energy for activate commands per rank (pJ)
system.mem_ctrl_1.actPowerDownEnergy                0                       # Energy for active power-down per rank (pJ)
system.mem_ctrl_1.averagePower             712.167749                       # Core power per rank (mW)
system.mem_ctrl_1.memoryStateTime::IDLE     378178751                       # Time in different power states
system.mem_ctrl_1.memoryStateTime::REF     6212700000                       # Time in different power states
system.mem_ctrl_1.memoryStateTime::SREF             0                       # Time in different power states
system.mem_ctrl_1.memoryStateTime::PRE_PDN            0                       # Time in different power states
system.mem_ctrl_1.memoryStateTime::ACT   179467556249                       # Time in different power states
system.mem_ctrl_1.memoryStateTime::ACT_PDN            0                       # Time in different power states
system.mem_ctrl_1.preBackEnergy             735739680                       # Energy for precharge background per rank (pJ)
system.mem_ctrl_1.preEnergy                6497100720                       # Energy for precharge commands per rank (pJ)
system.mem_ctrl_1.prePowerDownEnergy                0                       # Energy for precharge power-down per rank (pJ)
system.mem_ctrl_1.readEnergy               8386908180                       # Energy for read commands per rank (pJ)
system.mem_ctrl_1.refreshEnergy          14686822800.000002                       # Energy for refresh commands per rank (pJ)
system.mem_ctrl_1.selfRefreshEnergy                 0                       # Energy for self refresh per rank (pJ)
system.mem_ctrl_1.totalEnergy            132504816810                       # Total energy per rank (pJ)
system.mem_ctrl_1.totalIdleTime                     0                       # Total Idle time Per DRAM Rank
system.mem_ctrl_1.writeEnergy              6005474280                       # Energy for write commands per rank (pJ)
system.membus.pkt_count_system.l2cache.mem_side::system.mem_ctrl.port      7041830                       # Packet count per connected master and slave (bytes)
system.membus.pkt_count_system.l2cache.mem_side::total      7041830                       # Packet count per connected master and slave (bytes)
system.membus.pkt_count::total                7041830                       # Packet count per connected master and slave (bytes)
system.membus.pkt_size_system.l2cache.mem_side::system.mem_ctrl.port    297936512                       # Cumulative packet size per connected master and slave (bytes)
system.membus.pkt_size_system.l2cache.mem_side::total    297936512                       # Cumulative packet size per connected master and slave (bytes)
system.membus.pkt_size::total               297936512                       # Cumulative packet size per connected master and slave (bytes)
system.membus.pwrStateResidencyTicks::UNDEFINED 186058435000                       # Cumulative time (in ticks) in various power states
system.membus.reqLayer8.occupancy         13929197658                       # Layer occupancy (ticks)
system.membus.reqLayer8.utilization               7.5                       # Layer utilization (%)
system.membus.respLayer0.occupancy        13234119378                       # Layer occupancy (ticks)
system.membus.respLayer0.utilization              7.1                       # Layer utilization (%)
system.membus.snoopTraffic                          0                       # Total snoop traffic (bytes)
system.membus.snoop_fanout::samples           2350999                       # Request fanout histogram
system.membus.snoop_fanout::mean                    0                       # Request fanout histogram
system.membus.snoop_fanout::stdev                   0                       # Request fanout histogram
system.membus.snoop_fanout::underflows              0      0.00%      0.00% # Request fanout histogram
system.membus.snoop_fanout::0                 2350999    100.00%    100.00% # Request fanout histogram
system.membus.snoop_fanout::1                       0      0.00%    100.00% # Request fanout histogram
system.membus.snoop_fanout::overflows               0      0.00%    100.00% # Request fanout histogram
system.membus.snoop_fanout::min_value               0                       # Request fanout histogram
system.membus.snoop_fanout::max_value               0                       # Request fanout histogram
system.membus.snoop_fanout::total             2350999                       # Request fanout histogram
system.membus.snoop_filter.hit_multi_requests            0                       # Number of requests hitting in the snoop filter with multiple (>1) holders of the requested data.
system.membus.snoop_filter.hit_multi_snoops            0                       # Number of snoops hitting in the snoop filter with multiple (>1) holders of the requested data.
system.membus.snoop_filter.hit_single_requests      2339834                       # Number of requests hitting in the snoop filter with a single holder of the requested data.
system.membus.snoop_filter.hit_single_snoops            0                       # Number of snoops hitting in the snoop filter with a single holder of the requested data.
system.membus.snoop_filter.tot_requests       4690833                       # Total number of requests made to the snoop filter.
system.membus.snoop_filter.tot_snoops               0                       # Total number of snoops made to the snoop filter.
system.membus.snoops                                0                       # Total snoops (count)
system.membus.trans_dist::ReadResp            2294331                       # Transaction distribution
system.membus.trans_dist::WritebackDirty      2304261                       # Transaction distribution
system.membus.trans_dist::CleanEvict            35573                       # Transaction distribution
system.membus.trans_dist::ReadExReq             56666                       # Transaction distribution
system.membus.trans_dist::ReadExResp            56666                       # Transaction distribution
system.membus.trans_dist::ReadSharedReq       2294333                       # Transaction distribution

---------- End Simulation Statistics   ----------
