
---------- Begin Simulation Statistics ----------
final_tick                               186019724000                       # Number of ticks from beginning of simulation (restored from checkpoints and never reset)
host_inst_rate                                 345831                       # Simulator instruction rate (inst/s)
host_mem_usage                                 810888                       # Number of bytes of host memory used
host_op_rate                                   590652                       # Simulator op (including micro ops) rate (op/s)
host_seconds                                   452.24                       # Real time elapsed on the host
host_tick_rate                              411329742                       # Simulator tick rate (ticks/s)
sim_freq                                 1000000000000                       # Frequency of simulated ticks
sim_insts                                   156398388                       # Number of instructions simulated
sim_ops                                     267116170                       # Number of ops (including micro ops) simulated
sim_seconds                                  0.186020                       # Number of seconds simulated
sim_ticks                                186019724000                       # Number of ticks simulated
system.clk_domain.clock                          1000                       # Clock period in ticks
system.clk_domain.voltage_domain.voltage            1                       # Voltage in Volts
system.cpu0.Branches                         11271693                       # Number of branches fetched
system.cpu0.committedInsts                   50000000                       # Number of instructions committed
system.cpu0.committedOps                     93416416                       # Number of ops (including micro ops) committed
system.cpu0.dcache.ReadReq_accesses::.cpu0.data     10895037                       # number of ReadReq accesses(hits+misses)
system.cpu0.dcache.ReadReq_accesses::total     10895037                       # number of ReadReq accesses(hits+misses)
system.cpu0.dcache.ReadReq_avg_miss_latency::.cpu0.data 114831.795553                       # average ReadReq miss latency
system.cpu0.dcache.ReadReq_avg_miss_latency::total 114831.795553                       # average ReadReq miss latency
system.cpu0.dcache.ReadReq_avg_mshr_miss_latency::.cpu0.data 112831.795553                       # average ReadReq mshr miss latency
system.cpu0.dcache.ReadReq_avg_mshr_miss_latency::total 112831.795553                       # average ReadReq mshr miss latency
system.cpu0.dcache.ReadReq_hits::.cpu0.data     10879972                       # number of ReadReq hits
system.cpu0.dcache.ReadReq_hits::total       10879972                       # number of ReadReq hits
system.cpu0.dcache.ReadReq_miss_latency::.cpu0.data   1729941000                       # number of ReadReq miss cycles
system.cpu0.dcache.ReadReq_miss_latency::total   1729941000                       # number of ReadReq miss cycles
system.cpu0.dcache.ReadReq_miss_rate::.cpu0.data     0.001383                       # miss rate for ReadReq accesses
system.cpu0.dcache.ReadReq_miss_rate::total     0.001383                       # miss rate for ReadReq accesses
system.cpu0.dcache.ReadReq_misses::.cpu0.data        15065                       # number of ReadReq misses
system.cpu0.dcache.ReadReq_misses::total        15065                       # number of ReadReq misses
system.cpu0.dcache.ReadReq_mshr_miss_latency::.cpu0.data   1699811000                       # number of ReadReq MSHR miss cycles
system.cpu0.dcache.ReadReq_mshr_miss_latency::total   1699811000                       # number of ReadReq MSHR miss cycles
system.cpu0.dcache.ReadReq_mshr_miss_rate::.cpu0.data     0.001383                       # mshr miss rate for ReadReq accesses
system.cpu0.dcache.ReadReq_mshr_miss_rate::total     0.001383                       # mshr miss rate for ReadReq accesses
system.cpu0.dcache.ReadReq_mshr_misses::.cpu0.data        15065                       # number of ReadReq MSHR misses
system.cpu0.dcache.ReadReq_mshr_misses::total        15065                       # number of ReadReq MSHR misses
system.cpu0.dcache.WriteReq_accesses::.cpu0.data      7274294                       # number of WriteReq accesses(hits+misses)
system.cpu0.dcache.WriteReq_accesses::total      7274294                       # number of WriteReq accesses(hits+misses)
system.cpu0.dcache.WriteReq_avg_miss_latency::.cpu0.data 140758.326626                       # average WriteReq miss latency
system.cpu0.dcache.WriteReq_avg_miss_latency::total 140758.326626                       # average WriteReq miss latency
system.cpu0.dcache.WriteReq_avg_mshr_miss_latency::.cpu0.data 138758.326626                       # average WriteReq mshr miss latency
system.cpu0.dcache.WriteReq_avg_mshr_miss_latency::total 138758.326626                       # average WriteReq mshr miss latency
system.cpu0.dcache.WriteReq_hits::.cpu0.data      7222112                       # number of WriteReq hits
system.cpu0.dcache.WriteReq_hits::total       7222112                       # number of WriteReq hits
system.cpu0.dcache.WriteReq_miss_latency::.cpu0.data   7345051000                       # number of WriteReq miss cycles
system.cpu0.dcache.WriteReq_miss_latency::total   7345051000                       # number of WriteReq miss cycles
system.cpu0.dcache.WriteReq_miss_rate::.cpu0.data     0.007173                       # miss rate for WriteReq accesses
system.cpu0.dcache.WriteReq_miss_rate::total     0.007173                       # miss rate for WriteReq accesses
system.cpu0.dcache.WriteReq_misses::.cpu0.data        52182                       # number of WriteReq misses
system.cpu0.dcache.WriteReq_misses::total        52182                       # number of WriteReq misses
system.cpu0.dcache.WriteReq_mshr_miss_latency::.cpu0.data   7240687000                       # number of WriteReq MSHR miss cycles
system.cpu0.dcache.WriteReq_mshr_miss_latency::total   7240687000                       # number of WriteReq MSHR miss cycles
system.cpu0.dcache.WriteReq_mshr_miss_rate::.cpu0.data     0.007173                       # mshr miss rate for WriteReq accesses
system.cpu0.dcache.WriteReq_mshr_miss_rate::total     0.007173                       # mshr miss rate for WriteReq accesses
system.cpu0.dcache.WriteReq_mshr_misses::.cpu0.data        52182                       # number of WriteReq MSHR misses
system.cpu0.dcache.WriteReq_mshr_misses::total        52182                       # number of WriteReq MSHR misses
system.cpu0.dcache.avg_blocked_cycles::no_mshrs          nan                       # average number of cycles each access was blocked
system.cpu0.dcache.avg_blocked_cycles::no_targets          nan                       # average number of cycles each access was blocked
system.cpu0.dcache.blocked::no_mshrs                0                       # number of cycles access was blocked
system.cpu0.dcache.blocked::no_targets              0                       # number of cycles access was blocked
system.cpu0.dcache.blocked_cycles::no_mshrs            0                       # number of cycles access was blocked
system.cpu0.dcache.blocked_cycles::no_targets            0                       # number of cycles access was blocked
system.cpu0.dcache.demand_accesses::.cpu0.data     18169331                       # number of demand (read+write) accesses
system.cpu0.dcache.demand_accesses::total     18169331                       # number of demand (read+write) accesses
system.cpu0.dcache.demand_avg_miss_latency::.cpu0.data 134950.139040                       # average overall miss latency
system.cpu0.dcache.demand_avg_miss_latency::total 134950.139040                       # average overall miss latency
system.cpu0.dcache.demand_avg_mshr_miss_latency::.cpu0.data 132950.139040                       # average overall mshr miss latency
system.cpu0.dcache.demand_avg_mshr_miss_latency::total 132950.139040                       # average overall mshr miss latency
system.cpu0.dcache.demand_hits::.cpu0.data     18102084                       # number of demand (read+write) hits
system.cpu0.dcache.demand_hits::total        18102084                       # number of demand (read+write) hits
system.cpu0.dcache.demand_miss_latency::.cpu0.data   9074992000                       # number of demand (read+write) miss cycles
system.cpu0.dcache.demand_miss_latency::total   9074992000                       # number of demand (read+write) miss cycles
system.cpu0.dcache.demand_miss_rate::.cpu0.data     0.003701                       # miss rate for demand accesses
system.cpu0.dcache.demand_miss_rate::total     0.003701                       # miss rate for demand accesses
system.cpu0.dcache.demand_misses::.cpu0.data        67247                       # number of demand (read+write) misses
system.cpu0.dcache.demand_misses::total         67247                       # number of demand (read+write) misses
system.cpu0.dcache.demand_mshr_miss_latency::.cpu0.data   8940498000                       # number of demand (read+write) MSHR miss cycles
system.cpu0.dcache.demand_mshr_miss_latency::total   8940498000                       # number of demand (read+write) MSHR miss cycles
system.cpu0.dcache.demand_mshr_miss_rate::.cpu0.data     0.003701                       # mshr miss rate for demand accesses
system.cpu0.dcache.demand_mshr_miss_rate::total     0.003701                       # mshr miss rate for demand accesses
system.cpu0.dcache.demand_mshr_misses::.cpu0.data        67247                       # number of demand (read+write) MSHR misses
system.cpu0.dcache.demand_mshr_misses::total        67247                       # number of demand (read+write) MSHR misses
system.cpu0.dcache.overall_accesses::.cpu0.data     18169331                       # number of overall (read+write) accesses
system.cpu0.dcache.overall_accesses::total     18169331                       # number of overall (read+write) accesses
system.cpu0.dcache.overall_avg_miss_latency::.cpu0.data 134950.139040                       # average overall miss latency
system.cpu0.dcache.overall_avg_miss_latency::total 134950.139040                       # average overall miss latency
system.cpu0.dcache.overall_avg_mshr_miss_latency::.cpu0.data 132950.139040                       # average overall mshr miss latency
system.cpu0.dcache.overall_avg_mshr_miss_latency::total 132950.139040                       # average overall mshr miss latency
system.cpu0.dcache.overall_hits::.cpu0.data     18102084                       # number of overall hits
system.cpu0.dcache.overall_hits::total       18102084                       # number of overall hits
system.cpu0.dcache.overall_miss_latency::.cpu0.data   9074992000                       # number of overall miss cycles
system.cpu0.dcache.overall_miss_latency::total   9074992000                       # number of overall miss cycles
system.cpu0.dcache.overall_miss_rate::.cpu0.data     0.003701                       # miss rate for overall accesses
system.cpu0.dcache.overall_miss_rate::total     0.003701                       # miss rate for overall accesses
system.cpu0.dcache.overall_misses::.cpu0.data        67247                       # number of overall misses
system.cpu0.dcache.overall_misses::total        67247                       # number of overall misses
system.cpu0.dcache.overall_mshr_miss_latency::.cpu0.data   8940498000                       # number of overall MSHR miss cycles
system.cpu0.dcache.overall_mshr_miss_latency::total   8940498000                       # number of overall MSHR miss cycles
system.cpu0.dcache.overall_mshr_miss_rate::.cpu0.data     0.003701                       # mshr miss rate for overall accesses
system.cpu0.dcache.overall_mshr_miss_rate::total     0.003701                       # mshr miss rate for overall accesses
system.cpu0.dcache.overall_mshr_misses::.cpu0.data        67247                       # number of overall MSHR misses
system.cpu0.dcache.overall_mshr_misses::total        67247                       # number of overall MSHR misses
system.cpu0.dcache.pwrStateResidencyTicks::UNDEFINED 186019724000                       # Cumulative time (in ticks) in various power states
system.cpu0.dcache.replacements                 66223                       # number of replacements
system.cpu0.dcache.tags.age_task_id_blocks_1024::0            1                       # Occupied blocks per task id
system.cpu0.dcache.tags.age_task_id_blocks_1024::1           18                       # Occupied blocks per task id
system.cpu0.dcache.tags.age_task_id_blocks_1024::2          173                       # Occupied blocks per task id
system.cpu0.dcache.tags.age_task_id_blocks_1024::3          763                       # Occupied blocks per task id
system.cpu0.dcache.tags.age_task_id_blocks_1024::4           69                       # Occupied blocks per task id
system.cpu0.dcache.tags.avg_refs           270.187979                       # Average number of references to valid blocks.
system.cpu0.dcache.tags.data_accesses        36405909                       # Number of data accesses
system.cpu0.dcache.tags.occ_blocks::.cpu0.data  1019.958827                       # Average occupied blocks per requestor
system.cpu0.dcache.tags.occ_percent::.cpu0.data     0.996054                       # Average percentage of cache occupancy
system.cpu0.dcache.tags.occ_percent::total     0.996054                       # Average percentage of cache occupancy
system.cpu0.dcache.tags.occ_task_id_blocks::1024         1024                       # Occupied blocks per task id
system.cpu0.dcache.tags.occ_task_id_percent::1024            1                       # Percentage of cache occupancy per task id
system.cpu0.dcache.tags.pwrStateResidencyTicks::UNDEFINED 186019724000                       # Cumulative time (in ticks) in various power states
system.cpu0.dcache.tags.sampled_refs            67247                       # Sample count of references to valid blocks.
system.cpu0.dcache.tags.tag_accesses         36405909                       # Number of tag accesses
system.cpu0.dcache.tags.tagsinuse         1019.958827                       # Cycle average of tags in use
system.cpu0.dcache.tags.total_refs           18169331                       # Total number of references to valid blocks.
system.cpu0.dcache.tags.warmup_cycle           220000                       # Cycle when the warmup percentage was hit.
system.cpu0.dcache.writebacks::.writebacks        62734                       # number of writebacks
system.cpu0.dcache.writebacks::total            62734                       # number of writebacks
system.cpu0.dtb.rdAccesses                   10895037                       # TLB accesses on read requests
system.cpu0.dtb.rdMisses                         9262                       # TLB misses on read requests
system.cpu0.dtb.walker.pwrStateResidencyTicks::UNDEFINED 186019724000                       # Cumulative time (in ticks) in various power states
system.cpu0.dtb.wrAccesses                    7274294                       # TLB accesses on write requests
system.cpu0.dtb.wrMisses                          903                       # TLB misses on write requests
system.cpu0.icache.ReadReq_accesses::.cpu0.inst     67564204                       # number of ReadReq accesses(hits+misses)
system.cpu0.icache.ReadReq_accesses::total     67564204                       # number of ReadReq accesses(hits+misses)
system.cpu0.icache.ReadReq_avg_miss_latency::.cpu0.inst 26890.298798                       # average ReadReq miss latency
system.cpu0.icache.ReadReq_avg_miss_latency::total 26890.298798                       # average ReadReq miss latency
system.cpu0.icache.ReadReq_avg_mshr_miss_latency::.cpu0.inst 24890.298798                       # average ReadReq mshr miss latency
system.cpu0.icache.ReadReq_avg_mshr_miss_latency::total 24890.298798                       # average ReadReq mshr miss latency
system.cpu0.icache.ReadReq_hits::.cpu0.inst     67338500                       # number of ReadReq hits
system.cpu0.icache.ReadReq_hits::total       67338500                       # number of ReadReq hits
system.cpu0.icache.ReadReq_miss_latency::.cpu0.inst   6069248000                       # number of ReadReq miss cycles
system.cpu0.icache.ReadReq_miss_latency::total   6069248000                       # number of ReadReq miss cycles
system.cpu0.icache.ReadReq_miss_rate::.cpu0.inst     0.003341                       # miss rate for ReadReq accesses
system.cpu0.icache.ReadReq_miss_rate::total     0.003341                       # miss rate for ReadReq accesses
system.cpu0.icache.ReadReq_misses::.cpu0.inst       225704                       # number of ReadReq misses
system.cpu0.icache.ReadReq_misses::total       225704                       # number of ReadReq misses
system.cpu0.icache.ReadReq_mshr_miss_latency::.cpu0.inst   5617840000                       # number of ReadReq MSHR miss cycles
system.cpu0.icache.ReadReq_mshr_miss_latency::total   5617840000                       # number of ReadReq MSHR miss cycles
system.cpu0.icache.ReadReq_mshr_miss_rate::.cpu0.inst     0.003341                       # mshr miss rate for ReadReq accesses
system.cpu0.icache.ReadReq_mshr_miss_rate::total     0.003341                       # mshr miss rate for ReadReq accesses
system.cpu0.icache.ReadReq_mshr_misses::.cpu0.inst       225704                       # number of ReadReq MSHR misses
system.cpu0.icache.ReadReq_mshr_misses::total       225704                       # number of ReadReq MSHR misses
system.cpu0.icache.avg_blocked_cycles::no_mshrs          nan                       # average number of cycles each access was blocked
system.cpu0.icache.avg_blocked_cycles::no_targets          nan                       # average number of cycles each access was blocked
system.cpu0.icache.blocked::no_mshrs                0                       # number of cycles access was blocked
system.cpu0.icache.blocked::no_targets              0                       # number of cycles access was blocked
system.cpu0.icache.blocked_cycles::no_mshrs            0                       # number of cycles access was blocked
system.cpu0.icache.blocked_cycles::no_targets            0                       # number of cycles access was blocked
system.cpu0.icache.demand_accesses::.cpu0.inst     67564204                       # number of demand (read+write) accesses
system.cpu0.icache.demand_accesses::total     67564204                       # number of demand (read+write) accesses
system.cpu0.icache.demand_avg_miss_latency::.cpu0.inst 26890.298798                       # average overall miss latency
system.cpu0.icache.demand_avg_miss_latency::total 26890.298798                       # average overall miss latency
system.cpu0.icache.demand_avg_mshr_miss_latency::.cpu0.inst 24890.298798                       # average overall mshr miss latency
system.cpu0.icache.demand_avg_mshr_miss_latency::total 24890.298798                       # average overall mshr miss latency
system.cpu0.icache.demand_hits::.cpu0.inst     67338500                       # number of demand (read+write) hits
system.cpu0.icache.demand_hits::total        67338500                       # number of demand (read+write) hits
system.cpu0.icache.demand_miss_latency::.cpu0.inst   6069248000                       # number of demand (read+write) miss cycles
system.cpu0.icache.demand_miss_latency::total   6069248000                       # number of demand (read+write) miss cycles
system.cpu0.icache.demand_miss_rate::.cpu0.inst     0.003341                       # miss rate for demand accesses
system.cpu0.icache.demand_miss_rate::total     0.003341                       # miss rate for demand accesses
system.cpu0.icache.demand_misses::.cpu0.inst       225704                       # number of demand (read+write) misses
system.cpu0.icache.demand_misses::total        225704                       # number of demand (read+write) misses
system.cpu0.icache.demand_mshr_miss_latency::.cpu0.inst   5617840000                       # number of demand (read+write) MSHR miss cycles
system.cpu0.icache.demand_mshr_miss_latency::total   5617840000                       # number of demand (read+write) MSHR miss cycles
system.cpu0.icache.demand_mshr_miss_rate::.cpu0.inst     0.003341                       # mshr miss rate for demand accesses
system.cpu0.icache.demand_mshr_miss_rate::total     0.003341                       # mshr miss rate for demand accesses
system.cpu0.icache.demand_mshr_misses::.cpu0.inst       225704                       # number of demand (read+write) MSHR misses
system.cpu0.icache.demand_mshr_misses::total       225704                       # number of demand (read+write) MSHR misses
system.cpu0.icache.overall_accesses::.cpu0.inst     67564204                       # number of overall (read+write) accesses
system.cpu0.icache.overall_accesses::total     67564204                       # number of overall (read+write) accesses
system.cpu0.icache.overall_avg_miss_latency::.cpu0.inst 26890.298798                       # average overall miss latency
system.cpu0.icache.overall_avg_miss_latency::total 26890.298798                       # average overall miss latency
system.cpu0.icache.overall_avg_mshr_miss_latency::.cpu0.inst 24890.298798                       # average overall mshr miss latency
system.cpu0.icache.overall_avg_mshr_miss_latency::total 24890.298798                       # average overall mshr miss latency
system.cpu0.icache.overall_hits::.cpu0.inst     67338500                       # number of overall hits
system.cpu0.icache.overall_hits::total       67338500                       # number of overall hits
system.cpu0.icache.overall_miss_latency::.cpu0.inst   6069248000                       # number of overall miss cycles
system.cpu0.icache.overall_miss_latency::total   6069248000                       # number of overall miss cycles
system.cpu0.icache.overall_miss_rate::.cpu0.inst     0.003341                       # miss rate for overall accesses
system.cpu0.icache.overall_miss_rate::total     0.003341                       # miss rate for overall accesses
system.cpu0.icache.overall_misses::.cpu0.inst       225704                       # number of overall misses
system.cpu0.icache.overall_misses::total       225704                       # number of overall misses
system.cpu0.icache.overall_mshr_miss_latency::.cpu0.inst   5617840000                       # number of overall MSHR miss cycles
system.cpu0.icache.overall_mshr_miss_latency::total   5617840000                       # number of overall MSHR miss cycles
system.cpu0.icache.overall_mshr_miss_rate::.cpu0.inst     0.003341                       # mshr miss rate for overall accesses
system.cpu0.icache.overall_mshr_miss_rate::total     0.003341                       # mshr miss rate for overall accesses
system.cpu0.icache.overall_mshr_misses::.cpu0.inst       225704                       # number of overall MSHR misses
system.cpu0.icache.overall_mshr_misses::total       225704                       # number of overall MSHR misses
system.cpu0.icache.pwrStateResidencyTicks::UNDEFINED 186019724000                       # Cumulative time (in ticks) in various power states
system.cpu0.icache.replacements                225451                       # number of replacements
system.cpu0.icache.tags.age_task_id_blocks_1024::0            6                       # Occupied blocks per task id
system.cpu0.icache.tags.age_task_id_blocks_1024::3           10                       # Occupied blocks per task id
system.cpu0.icache.tags.age_task_id_blocks_1024::4          237                       # Occupied blocks per task id
system.cpu0.icache.tags.avg_refs           299.348722                       # Average number of references to valid blocks.
system.cpu0.icache.tags.data_accesses       135354112                       # Number of data accesses
system.cpu0.icache.tags.occ_blocks::.cpu0.inst   252.703403                       # Average occupied blocks per requestor
system.cpu0.icache.tags.occ_percent::.cpu0.inst     0.987123                       # Average percentage of cache occupancy
system.cpu0.icache.tags.occ_percent::total     0.987123                       # Average percentage of cache occupancy
system.cpu0.icache.tags.occ_task_id_blocks::1024          253                       # Occupied blocks per task id
system.cpu0.icache.tags.occ_task_id_percent::1024     0.988281                       # Percentage of cache occupancy per task id
system.cpu0.icache.tags.pwrStateResidencyTicks::UNDEFINED 186019724000                       # Cumulative time (in ticks) in various power states
system.cpu0.icache.tags.sampled_refs           225704                       # Sample count of references to valid blocks.
system.cpu0.icache.tags.tag_accesses        135354112                       # Number of tag accesses
system.cpu0.icache.tags.tagsinuse          252.703403                       # Cycle average of tags in use
system.cpu0.icache.tags.total_refs           67564204                       # Total number of references to valid blocks.
system.cpu0.icache.tags.warmup_cycle           107000                       # Cycle when the warmup percentage was hit.
system.cpu0.idle_fraction                           0                       # Percentage of idle cycles
system.cpu0.interrupts.clk_domain.clock         16000                       # Clock period in ticks
system.cpu0.interrupts.pwrStateResidencyTicks::UNDEFINED 186019724000                       # Cumulative time (in ticks) in various power states
system.cpu0.itb.rdAccesses                          0                       # TLB accesses on read requests
system.cpu0.itb.rdMisses                            0                       # TLB misses on read requests
system.cpu0.itb.walker.pwrStateResidencyTicks::UNDEFINED 186019724000                       # Cumulative time (in ticks) in various power states
system.cpu0.itb.wrAccesses                   67564204                       # TLB accesses on write requests
system.cpu0.itb.wrMisses                          143                       # TLB misses on write requests
system.cpu0.not_idle_fraction                       1                       # Percentage of non-idle cycles
system.cpu0.numCycles                       186019724                       # number of cpu cycles simulated
system.cpu0.numWorkItemsCompleted                   0                       # number of work items this cpu completed
system.cpu0.numWorkItemsStarted                     0                       # number of work items this cpu started
system.cpu0.num_busy_cycles                 186019724                       # Number of busy cycles
system.cpu0.num_cc_register_reads            57999789                       # number of times the CC registers were read
system.cpu0.num_cc_register_writes           29711192                       # number of times the CC registers were written
system.cpu0.num_conditional_control_insts      9157455                       # number of instructions that are conditional controls
system.cpu0.num_fp_alu_accesses               1222432                       # Number of float alu accesses
system.cpu0.num_fp_insts                      1222432                       # number of float instructions
system.cpu0.num_fp_register_reads             1373816                       # number of times the floating registers were read
system.cpu0.num_fp_register_writes             922801                       # number of times the floating registers were written
system.cpu0.num_func_calls                     950822                       # number of times a function call or return occured
system.cpu0.num_idle_cycles                         0                       # Number of idle cycles
system.cpu0.num_int_alu_accesses             92671260                       # Number of integer alu accesses
system.cpu0.num_int_insts                    92671260                       # number of integer instructions
system.cpu0.num_int_register_reads          179379720                       # number of times the integer registers were read
system.cpu0.num_int_register_writes          74049566                       # number of times the integer registers were written
system.cpu0.num_load_insts                   10889359                       # Number of load instructions
system.cpu0.num_mem_refs                     18163650                       # number of memory refs
system.cpu0.num_store_insts                   7274291                       # Number of store instructions
system.cpu0.num_vec_alu_accesses                    0                       # Number of vector alu accesses
system.cpu0.num_vec_insts                           0                       # number of vector instructions
system.cpu0.num_vec_register_reads                  0                       # number of times the vector registers were read
system.cpu0.num_vec_register_writes                 0                       # number of times the vector registers were written
system.cpu0.op_class::No_OpClass               166650      0.18%      0.18% # Class of executed instruction
system.cpu0.op_class::IntAlu                 74178542     79.41%     79.58% # Class of executed instruction
system.cpu0.op_class::IntMult                  223387      0.24%     79.82% # Class of executed instruction
system.cpu0.op_class::IntDiv                       21      0.00%     79.82% # Class of executed instruction
system.cpu0.op_class::FloatAdd                 117293      0.13%     79.95% # Class of executed instruction
system.cpu0.op_class::FloatCmp                      0      0.00%     79.95% # Class of executed instruction
system.cpu0.op_class::FloatCvt                      0      0.00%     79.95% # Class of executed instruction
system.cpu0.op_class::FloatMult                     0      0.00%     79.95% # Class of executed instruction
system.cpu0.op_class::FloatMultAcc                  0      0.00%     79.95% # Class of executed instruction
system.cpu0.op_class::FloatDiv                      0      0.00%     79.95% # Class of executed instruction
system.cpu0.op_class::FloatMisc                     0      0.00%     79.95% # Class of executed instruction
system.cpu0.op_class::FloatSqrt                     0      0.00%     79.95% # Class of executed instruction
system.cpu0.op_class::SimdAdd                     374      0.00%     79.95% # Class of executed instruction
system.cpu0.op_class::SimdAddAcc                    0      0.00%     79.95% # Class of executed instruction
system.cpu0.op_class::SimdAlu                     100      0.00%     79.95% # Class of executed instruction
system.cpu0.op_class::SimdCmp                       0      0.00%     79.95% # Class of executed instruction
system.cpu0.op_class::SimdCvt                  110402      0.12%     80.07% # Class of executed instruction
system.cpu0.op_class::SimdMisc                 455811      0.49%     80.56% # Class of executed instruction
system.cpu0.op_class::SimdMult                      0      0.00%     80.56% # Class of executed instruction
system.cpu0.op_class::SimdMultAcc                   0      0.00%     80.56% # Class of executed instruction
system.cpu0.op_class::SimdShift                   186      0.00%     80.56% # Class of executed instruction
system.cpu0.op_class::SimdShiftAcc                  0      0.00%     80.56% # Class of executed instruction
system.cpu0.op_class::SimdDiv                       0      0.00%     80.56% # Class of executed instruction
system.cpu0.op_class::SimdSqrt                      0      0.00%     80.56% # Class of executed instruction
system.cpu0.op_class::SimdFloatAdd                  0      0.00%     80.56% # Class of executed instruction
system.cpu0.op_class::SimdFloatAlu                  0      0.00%     80.56% # Class of executed instruction
system.cpu0.op_class::SimdFloatCmp                  0      0.00%     80.56% # Class of executed instruction
system.cpu0.op_class::SimdFloatCvt                  0      0.00%     80.56% # Class of executed instruction
system.cpu0.op_class::SimdFloatDiv                  0      0.00%     80.56% # Class of executed instruction
system.cpu0.op_class::SimdFloatMisc                 0      0.00%     80.56% # Class of executed instruction
system.cpu0.op_class::SimdFloatMult                 0      0.00%     80.56% # Class of executed instruction
system.cpu0.op_class::SimdFloatMultAcc              0      0.00%     80.56% # Class of executed instruction
system.cpu0.op_class::SimdFloatSqrt                 0      0.00%     80.56% # Class of executed instruction
system.cpu0.op_class::SimdReduceAdd                 0      0.00%     80.56% # Class of executed instruction
system.cpu0.op_class::SimdReduceAlu                 0      0.00%     80.56% # Class of executed instruction
system.cpu0.op_class::SimdReduceCmp                 0      0.00%     80.56% # Class of executed instruction
system.cpu0.op_class::SimdFloatReduceAdd            0      0.00%     80.56% # Class of executed instruction
system.cpu0.op_class::SimdFloatReduceCmp            0      0.00%     80.56% # Class of executed instruction
system.cpu0.op_class::SimdAes                       0      0.00%     80.56% # Class of executed instruction
system.cpu0.op_class::SimdAesMix                    0      0.00%     80.56% # Class of executed instruction
system.cpu0.op_class::SimdSha1Hash                  0      0.00%     80.56% # Class of executed instruction
system.cpu0.op_class::SimdSha1Hash2                 0      0.00%     80.56% # Class of executed instruction
system.cpu0.op_class::SimdSha256Hash                0      0.00%     80.56% # Class of executed instruction
system.cpu0.op_class::SimdSha256Hash2               0      0.00%     80.56% # Class of executed instruction
system.cpu0.op_class::SimdShaSigma2                 0      0.00%     80.56% # Class of executed instruction
system.cpu0.op_class::SimdShaSigma3                 0      0.00%     80.56% # Class of executed instruction
system.cpu0.op_class::SimdPredAlu                   0      0.00%     80.56% # Class of executed instruction
system.cpu0.op_class::MemRead                10590223     11.34%     91.89% # Class of executed instruction
system.cpu0.op_class::MemWrite                7085002      7.58%     99.48% # Class of executed instruction
system.cpu0.op_class::FloatMemRead             299136      0.32%     99.80% # Class of executed instruction
system.cpu0.op_class::FloatMemWrite            189289      0.20%    100.00% # Class of executed instruction
system.cpu0.op_class::IprAccess                     0      0.00%    100.00% # Class of executed instruction
system.cpu0.op_class::InstPrefetch                  0      0.00%    100.00% # Class of executed instruction
system.cpu0.op_class::total                  93416416                       # Class of executed instruction
system.cpu0.pwrStateResidencyTicks::ON   186019724000                       # Cumulative time (in ticks) in various power states
system.cpu0.workload.numSyscalls                   56                       # Number of system calls
system.cpu1.Branches                         11268257                       # Number of branches fetched
system.cpu1.committedInsts                   49985238                       # Number of instructions committed
system.cpu1.committedOps                     93388544                       # Number of ops (including micro ops) committed
system.cpu1.dcache.ReadReq_accesses::.cpu1.data     10891908                       # number of ReadReq accesses(hits+misses)
system.cpu1.dcache.ReadReq_accesses::total     10891908                       # number of ReadReq accesses(hits+misses)
system.cpu1.dcache.ReadReq_avg_miss_latency::.cpu1.data 116835.268846                       # average ReadReq miss latency
system.cpu1.dcache.ReadReq_avg_miss_latency::total 116835.268846                       # average ReadReq miss latency
system.cpu1.dcache.ReadReq_avg_mshr_miss_latency::.cpu1.data 114835.268846                       # average ReadReq mshr miss latency
system.cpu1.dcache.ReadReq_avg_mshr_miss_latency::total 114835.268846                       # average ReadReq mshr miss latency
system.cpu1.dcache.ReadReq_hits::.cpu1.data     10877011                       # number of ReadReq hits
system.cpu1.dcache.ReadReq_hits::total       10877011                       # number of ReadReq hits
system.cpu1.dcache.ReadReq_miss_latency::.cpu1.data   1740495000                       # number of ReadReq miss cycles
system.cpu1.dcache.ReadReq_miss_latency::total   1740495000                       # number of ReadReq miss cycles
system.cpu1.dcache.ReadReq_miss_rate::.cpu1.data     0.001368                       # miss rate for ReadReq accesses
system.cpu1.dcache.ReadReq_miss_rate::total     0.001368                       # miss rate for ReadReq accesses
system.cpu1.dcache.ReadReq_misses::.cpu1.data        14897                       # number of ReadReq misses
system.cpu1.dcache.ReadReq_misses::total        14897                       # number of ReadReq misses
system.cpu1.dcache.ReadReq_mshr_miss_latency::.cpu1.data   1710701000                       # number of ReadReq MSHR miss cycles
system.cpu1.dcache.ReadReq_mshr_miss_latency::total   1710701000                       # number of ReadReq MSHR miss cycles
system.cpu1.dcache.ReadReq_mshr_miss_rate::.cpu1.data     0.001368                       # mshr miss rate for ReadReq accesses
system.cpu1.dcache.ReadReq_mshr_miss_rate::total     0.001368                       # mshr miss rate for ReadReq accesses
system.cpu1.dcache.ReadReq_mshr_misses::.cpu1.data        14897                       # number of ReadReq MSHR misses
system.cpu1.dcache.ReadReq_mshr_misses::total        14897                       # number of ReadReq MSHR misses
system.cpu1.dcache.WriteReq_accesses::.cpu1.data      7272175                       # number of WriteReq accesses(hits+misses)
system.cpu1.dcache.WriteReq_accesses::total      7272175                       # number of WriteReq accesses(hits+misses)
system.cpu1.dcache.WriteReq_avg_miss_latency::.cpu1.data 141418.290768                       # average WriteReq miss latency
system.cpu1.dcache.WriteReq_avg_miss_latency::total 141418.290768                       # average WriteReq miss latency
system.cpu1.dcache.WriteReq_avg_mshr_miss_latency::.cpu1.data 139418.290768                       # average WriteReq mshr miss latency
system.cpu1.dcache.WriteReq_avg_mshr_miss_latency::total 139418.290768                       # average WriteReq mshr miss latency
system.cpu1.dcache.WriteReq_hits::.cpu1.data      7219941                       # number of WriteReq hits
system.cpu1.dcache.WriteReq_hits::total       7219941                       # number of WriteReq hits
system.cpu1.dcache.WriteReq_miss_latency::.cpu1.data   7386843000                       # number of WriteReq miss cycles
system.cpu1.dcache.WriteReq_miss_latency::total   7386843000                       # number of WriteReq miss cycles
system.cpu1.dcache.WriteReq_miss_rate::.cpu1.data     0.007183                       # miss rate for WriteReq accesses
system.cpu1.dcache.WriteReq_miss_rate::total     0.007183                       # miss rate for WriteReq accesses
system.cpu1.dcache.WriteReq_misses::.cpu1.data        52234                       # number of WriteReq misses
system.cpu1.dcache.WriteReq_misses::total        52234                       # number of WriteReq misses
system.cpu1.dcache.WriteReq_mshr_miss_latency::.cpu1.data   7282375000                       # number of WriteReq MSHR miss cycles
system.cpu1.dcache.WriteReq_mshr_miss_latency::total   7282375000                       # number of WriteReq MSHR miss cycles
system.cpu1.dcache.WriteReq_mshr_miss_rate::.cpu1.data     0.007183                       # mshr miss rate for WriteReq accesses
system.cpu1.dcache.WriteReq_mshr_miss_rate::total     0.007183                       # mshr miss rate for WriteReq accesses
system.cpu1.dcache.WriteReq_mshr_misses::.cpu1.data        52234                       # number of WriteReq MSHR misses
system.cpu1.dcache.WriteReq_mshr_misses::total        52234                       # number of WriteReq MSHR misses
system.cpu1.dcache.avg_blocked_cycles::no_mshrs          nan                       # average number of cycles each access was blocked
system.cpu1.dcache.avg_blocked_cycles::no_targets          nan                       # average number of cycles each access was blocked
system.cpu1.dcache.blocked::no_mshrs                0                       # number of cycles access was blocked
system.cpu1.dcache.blocked::no_targets              0                       # number of cycles access was blocked
system.cpu1.dcache.blocked_cycles::no_mshrs            0                       # number of cycles access was blocked
system.cpu1.dcache.blocked_cycles::no_targets            0                       # number of cycles access was blocked
system.cpu1.dcache.demand_accesses::.cpu1.data     18164083                       # number of demand (read+write) accesses
system.cpu1.dcache.demand_accesses::total     18164083                       # number of demand (read+write) accesses
system.cpu1.dcache.demand_avg_miss_latency::.cpu1.data 135963.087098                       # average overall miss latency
system.cpu1.dcache.demand_avg_miss_latency::total 135963.087098                       # average overall miss latency
system.cpu1.dcache.demand_avg_mshr_miss_latency::.cpu1.data 133963.087098                       # average overall mshr miss latency
system.cpu1.dcache.demand_avg_mshr_miss_latency::total 133963.087098                       # average overall mshr miss latency
system.cpu1.dcache.demand_hits::.cpu1.data     18096952                       # number of demand (read+write) hits
system.cpu1.dcache.demand_hits::total        18096952                       # number of demand (read+write) hits
system.cpu1.dcache.demand_miss_latency::.cpu1.data   9127338000                       # number of demand (read+write) miss cycles
system.cpu1.dcache.demand_miss_latency::total   9127338000                       # number of demand (read+write) miss cycles
system.cpu1.dcache.demand_miss_rate::.cpu1.data     0.003696                       # miss rate for demand accesses
system.cpu1.dcache.demand_miss_rate::total     0.003696                       # miss rate for demand accesses
system.cpu1.dcache.demand_misses::.cpu1.data        67131                       # number of demand (read+write) misses
system.cpu1.dcache.demand_misses::total         67131                       # number of demand (read+write) misses
system.cpu1.dcache.demand_mshr_miss_latency::.cpu1.data   8993076000                       # number of demand (read+write) MSHR miss cycles
system.cpu1.dcache.demand_mshr_miss_latency::total   8993076000                       # number of demand (read+write) MSHR miss cycles
system.cpu1.dcache.demand_mshr_miss_rate::.cpu1.data     0.003696                       # mshr miss rate for demand accesses
system.cpu1.dcache.demand_mshr_miss_rate::total     0.003696                       # mshr miss rate for demand accesses
system.cpu1.dcache.demand_mshr_misses::.cpu1.data        67131                       # number of demand (read+write) MSHR misses
system.cpu1.dcache.demand_mshr_misses::total        67131                       # number of demand (read+write) MSHR misses
system.cpu1.dcache.overall_accesses::.cpu1.data     18164083                       # number of overall (read+write) accesses
system.cpu1.dcache.overall_accesses::total     18164083                       # number of overall (read+write) accesses
system.cpu1.dcache.overall_avg_miss_latency::.cpu1.data 135963.087098                       # average overall miss latency
system.cpu1.dcache.overall_avg_miss_latency::total 135963.087098                       # average overall miss latency
system.cpu1.dcache.overall_avg_mshr_miss_latency::.cpu1.data 133963.087098                       # average overall mshr miss latency
system.cpu1.dcache.overall_avg_mshr_miss_latency::total 133963.087098                       # average overall mshr miss latency
system.cpu1.dcache.overall_hits::.cpu1.data     18096952                       # number of overall hits
system.cpu1.dcache.overall_hits::total       18096952                       # number of overall hits
system.cpu1.dcache.overall_miss_latency::.cpu1.data   9127338000                       # number of overall miss cycles
system.cpu1.dcache.overall_miss_latency::total   9127338000                       # number of overall miss cycles
system.cpu1.dcache.overall_miss_rate::.cpu1.data     0.003696                       # miss rate for overall accesses
system.cpu1.dcache.overall_miss_rate::total     0.003696                       # miss rate for overall accesses
system.cpu1.dcache.overall_misses::.cpu1.data        67131                       # number of overall misses
system.cpu1.dcache.overall_misses::total        67131                       # number of overall misses
system.cpu1.dcache.overall_mshr_miss_latency::.cpu1.data   8993076000                       # number of overall MSHR miss cycles
system.cpu1.dcache.overall_mshr_miss_latency::total   8993076000                       # number of overall MSHR miss cycles
system.cpu1.dcache.overall_mshr_miss_rate::.cpu1.data     0.003696                       # mshr miss rate for overall accesses
system.cpu1.dcache.overall_mshr_miss_rate::total     0.003696                       # mshr miss rate for overall accesses
system.cpu1.dcache.overall_mshr_misses::.cpu1.data        67131                       # number of overall MSHR misses
system.cpu1.dcache.overall_mshr_misses::total        67131                       # number of overall MSHR misses
system.cpu1.dcache.pwrStateResidencyTicks::UNDEFINED 186019724000                       # Cumulative time (in ticks) in various power states
system.cpu1.dcache.replacements                 66107                       # number of replacements
system.cpu1.dcache.tags.age_task_id_blocks_1024::0            1                       # Occupied blocks per task id
system.cpu1.dcache.tags.age_task_id_blocks_1024::1           16                       # Occupied blocks per task id
system.cpu1.dcache.tags.age_task_id_blocks_1024::2          174                       # Occupied blocks per task id
system.cpu1.dcache.tags.age_task_id_blocks_1024::3          761                       # Occupied blocks per task id
system.cpu1.dcache.tags.age_task_id_blocks_1024::4           72                       # Occupied blocks per task id
system.cpu1.dcache.tags.avg_refs           270.576678                       # Average number of references to valid blocks.
system.cpu1.dcache.tags.data_accesses        36395297                       # Number of data accesses
system.cpu1.dcache.tags.occ_blocks::.cpu1.data  1019.982071                       # Average occupied blocks per requestor
system.cpu1.dcache.tags.occ_percent::.cpu1.data     0.996076                       # Average percentage of cache occupancy
system.cpu1.dcache.tags.occ_percent::total     0.996076                       # Average percentage of cache occupancy
system.cpu1.dcache.tags.occ_task_id_blocks::1024         1024                       # Occupied blocks per task id
system.cpu1.dcache.tags.occ_task_id_percent::1024            1                       # Percentage of cache occupancy per task id
system.cpu1.dcache.tags.pwrStateResidencyTicks::UNDEFINED 186019724000                       # Cumulative time (in ticks) in various power states
system.cpu1.dcache.tags.sampled_refs            67131                       # Sample count of references to valid blocks.
system.cpu1.dcache.tags.tag_accesses         36395297                       # Number of tag accesses
system.cpu1.dcache.tags.tagsinuse         1019.982071                       # Cycle average of tags in use
system.cpu1.dcache.tags.total_refs           18164083                       # Total number of references to valid blocks.
system.cpu1.dcache.tags.warmup_cycle           283000                       # Cycle when the warmup percentage was hit.
system.cpu1.dcache.writebacks::.writebacks        62880                       # number of writebacks
system.cpu1.dcache.writebacks::total            62880                       # number of writebacks
system.cpu1.dtb.rdAccesses                   10891908                       # TLB accesses on read requests
system.cpu1.dtb.rdMisses                         9257                       # TLB misses on read requests
system.cpu1.dtb.walker.pwrStateResidencyTicks::UNDEFINED 186019724000                       # Cumulative time (in ticks) in various power states
system.cpu1.dtb.wrAccesses                    7272175                       # TLB accesses on write requests
system.cpu1.dtb.wrMisses                          903                       # TLB misses on write requests
system.cpu1.icache.ReadReq_accesses::.cpu1.inst     67544309                       # number of ReadReq accesses(hits+misses)
system.cpu1.icache.ReadReq_accesses::total     67544309                       # number of ReadReq accesses(hits+misses)
system.cpu1.icache.ReadReq_avg_miss_latency::.cpu1.inst 26887.086124                       # average ReadReq miss latency
system.cpu1.icache.ReadReq_avg_miss_latency::total 26887.086124                       # average ReadReq miss latency
system.cpu1.icache.ReadReq_avg_mshr_miss_latency::.cpu1.inst 24887.086124                       # average ReadReq mshr miss latency
system.cpu1.icache.ReadReq_avg_mshr_miss_latency::total 24887.086124                       # average ReadReq mshr miss latency
system.cpu1.icache.ReadReq_hits::.cpu1.inst     67318668                       # number of ReadReq hits
system.cpu1.icache.ReadReq_hits::total       67318668                       # number of ReadReq hits
system.cpu1.icache.ReadReq_miss_latency::.cpu1.inst   6066829000                       # number of ReadReq miss cycles
system.cpu1.icache.ReadReq_miss_latency::total   6066829000                       # number of ReadReq miss cycles
system.cpu1.icache.ReadReq_miss_rate::.cpu1.inst     0.003341                       # miss rate for ReadReq accesses
system.cpu1.icache.ReadReq_miss_rate::total     0.003341                       # miss rate for ReadReq accesses
system.cpu1.icache.ReadReq_misses::.cpu1.inst       225641                       # number of ReadReq misses
system.cpu1.icache.ReadReq_misses::total       225641                       # number of ReadReq misses
system.cpu1.icache.ReadReq_mshr_miss_latency::.cpu1.inst   5615547000                       # number of ReadReq MSHR miss cycles
system.cpu1.icache.ReadReq_mshr_miss_latency::total   5615547000                       # number of ReadReq MSHR miss cycles
system.cpu1.icache.ReadReq_mshr_miss_rate::.cpu1.inst     0.003341                       # mshr miss rate for ReadReq accesses
system.cpu1.icache.ReadReq_mshr_miss_rate::total     0.003341                       # mshr miss rate for ReadReq accesses
system.cpu1.icache.ReadReq_mshr_misses::.cpu1.inst       225641                       # number of ReadReq MSHR misses
system.cpu1.icache.ReadReq_mshr_misses::total       225641                       # number of ReadReq MSHR misses
system.cpu1.icache.avg_blocked_cycles::no_mshrs          nan                       # average number of cycles each access was blocked
system.cpu1.icache.avg_blocked_cycles::no_targets          nan                       # average number of cycles each access was blocked
system.cpu1.icache.blocked::no_mshrs                0                       # number of cycles access was blocked
system.cpu1.icache.blocked::no_targets              0                       # number of cycles access was blocked
system.cpu1.icache.blocked_cycles::no_mshrs            0                       # number of cycles access was blocked
system.cpu1.icache.blocked_cycles::no_targets            0                       # number of cycles access was blocked
system.cpu1.icache.demand_accesses::.cpu1.inst     67544309                       # number of demand (read+write) accesses
system.cpu1.icache.demand_accesses::total     67544309                       # number of demand (read+write) accesses
system.cpu1.icache.demand_avg_miss_latency::.cpu1.inst 26887.086124                       # average overall miss latency
system.cpu1.icache.demand_avg_miss_latency::total 26887.086124                       # average overall miss latency
system.cpu1.icache.demand_avg_mshr_miss_latency::.cpu1.inst 24887.086124                       # average overall mshr miss latency
system.cpu1.icache.demand_avg_mshr_miss_latency::total 24887.086124                       # average overall mshr miss latency
system.cpu1.icache.demand_hits::.cpu1.inst     67318668                       # number of demand (read+write) hits
system.cpu1.icache.demand_hits::total        67318668                       # number of demand (read+write) hits
system.cpu1.icache.demand_miss_latency::.cpu1.inst   6066829000                       # number of demand (read+write) miss cycles
system.cpu1.icache.demand_miss_latency::total   6066829000                       # number of demand (read+write) miss cycles
system.cpu1.icache.demand_miss_rate::.cpu1.inst     0.003341                       # miss rate for demand accesses
system.cpu1.icache.demand_miss_rate::total     0.003341                       # miss rate for demand accesses
system.cpu1.icache.demand_misses::.cpu1.inst       225641                       # number of demand (read+write) misses
system.cpu1.icache.demand_misses::total        225641                       # number of demand (read+write) misses
system.cpu1.icache.demand_mshr_miss_latency::.cpu1.inst   5615547000                       # number of demand (read+write) MSHR miss cycles
system.cpu1.icache.demand_mshr_miss_latency::total   5615547000                       # number of demand (read+write) MSHR miss cycles
system.cpu1.icache.demand_mshr_miss_rate::.cpu1.inst     0.003341                       # mshr miss rate for demand accesses
system.cpu1.icache.demand_mshr_miss_rate::total     0.003341                       # mshr miss rate for demand accesses
system.cpu1.icache.demand_mshr_misses::.cpu1.inst       225641                       # number of demand (read+write) MSHR misses
system.cpu1.icache.demand_mshr_misses::total       225641                       # number of demand (read+write) MSHR misses
system.cpu1.icache.overall_accesses::.cpu1.inst     67544309                       # number of overall (read+write) accesses
system.cpu1.icache.overall_accesses::total     67544309                       # number of overall (read+write) accesses
system.cpu1.icache.overall_avg_miss_latency::.cpu1.inst 26887.086124                       # average overall miss latency
system.cpu1.icache.overall_avg_miss_latency::total 26887.086124                       # average overall miss latency
system.cpu1.icache.overall_avg_mshr_miss_latency::.cpu1.inst 24887.086124                       # average overall mshr miss latency
system.cpu1.icache.overall_avg_mshr_miss_latency::total 24887.086124                       # average overall mshr miss latency
system.cpu1.icache.overall_hits::.cpu1.inst     67318668                       # number of overall hits
system.cpu1.icache.overall_hits::total       67318668                       # number of overall hits
system.cpu1.icache.overall_miss_latency::.cpu1.inst   6066829000                       # number of overall miss cycles
system.cpu1.icache.overall_miss_latency::total   6066829000                       # number of overall miss cycles
system.cpu1.icache.overall_miss_rate::.cpu1.inst     0.003341                       # miss rate for overall accesses
system.cpu1.icache.overall_miss_rate::total     0.003341                       # miss rate for overall accesses
system.cpu1.icache.overall_misses::.cpu1.inst       225641                       # number of overall misses
system.cpu1.icache.overall_misses::total       225641                       # number of overall misses
system.cpu1.icache.overall_mshr_miss_latency::.cpu1.inst   5615547000                       # number of overall MSHR miss cycles
system.cpu1.icache.overall_mshr_miss_latency::total   5615547000                       # number of overall MSHR miss cycles
system.cpu1.icache.overall_mshr_miss_rate::.cpu1.inst     0.003341                       # mshr miss rate for overall accesses
system.cpu1.icache.overall_mshr_miss_rate::total     0.003341                       # mshr miss rate for overall accesses
system.cpu1.icache.overall_mshr_misses::.cpu1.inst       225641                       # number of overall MSHR misses
system.cpu1.icache.overall_mshr_misses::total       225641                       # number of overall MSHR misses
system.cpu1.icache.pwrStateResidencyTicks::UNDEFINED 186019724000                       # Cumulative time (in ticks) in various power states
system.cpu1.icache.replacements                225388                       # number of replacements
system.cpu1.icache.tags.age_task_id_blocks_1024::0            6                       # Occupied blocks per task id
system.cpu1.icache.tags.age_task_id_blocks_1024::3           10                       # Occupied blocks per task id
system.cpu1.icache.tags.age_task_id_blocks_1024::4          237                       # Occupied blocks per task id
system.cpu1.icache.tags.avg_refs           299.344131                       # Average number of references to valid blocks.
system.cpu1.icache.tags.data_accesses       135314259                       # Number of data accesses
system.cpu1.icache.tags.occ_blocks::.cpu1.inst   252.703181                       # Average occupied blocks per requestor
system.cpu1.icache.tags.occ_percent::.cpu1.inst     0.987122                       # Average percentage of cache occupancy
system.cpu1.icache.tags.occ_percent::total     0.987122                       # Average percentage of cache occupancy
system.cpu1.icache.tags.occ_task_id_blocks::1024          253                       # Occupied blocks per task id
system.cpu1.icache.tags.occ_task_id_percent::1024     0.988281                       # Percentage of cache occupancy per task id
system.cpu1.icache.tags.pwrStateResidencyTicks::UNDEFINED 186019724000                       # Cumulative time (in ticks) in various power states
system.cpu1.icache.tags.sampled_refs           225641                       # Sample count of references to valid blocks.
system.cpu1.icache.tags.tag_accesses        135314259                       # Number of tag accesses
system.cpu1.icache.tags.tagsinuse          252.703181                       # Cycle average of tags in use
system.cpu1.icache.tags.total_refs           67544309                       # Total number of references to valid blocks.
system.cpu1.icache.tags.warmup_cycle           156000                       # Cycle when the warmup percentage was hit.
system.cpu1.idle_fraction                           0                       # Percentage of idle cycles
system.cpu1.interrupts.clk_domain.clock         16000                       # Clock period in ticks
system.cpu1.interrupts.pwrStateResidencyTicks::UNDEFINED 186019724000                       # Cumulative time (in ticks) in various power states
system.cpu1.itb.rdAccesses                          0                       # TLB accesses on read requests
system.cpu1.itb.rdMisses                            0                       # TLB misses on read requests
system.cpu1.itb.walker.pwrStateResidencyTicks::UNDEFINED 186019724000                       # Cumulative time (in ticks) in various power states
system.cpu1.itb.wrAccesses                   67544309                       # TLB accesses on write requests
system.cpu1.itb.wrMisses                          147                       # TLB misses on write requests
system.cpu1.not_idle_fraction                       1                       # Percentage of non-idle cycles
system.cpu1.numCycles                       186019724                       # number of cpu cycles simulated
system.cpu1.numWorkItemsCompleted                   0                       # number of work items this cpu completed
system.cpu1.numWorkItemsStarted                     0                       # number of work items this cpu started
system.cpu1.num_busy_cycles                 186019724                       # Number of busy cycles
system.cpu1.num_cc_register_reads            57982193                       # number of times the CC registers were read
system.cpu1.num_cc_register_writes           29702417                       # number of times the CC registers were written
system.cpu1.num_conditional_control_insts      9154654                       # number of instructions that are conditional controls
system.cpu1.num_fp_alu_accesses               1222088                       # Number of float alu accesses
system.cpu1.num_fp_insts                      1222088                       # number of float instructions
system.cpu1.num_fp_register_reads             1373432                       # number of times the floating registers were read
system.cpu1.num_fp_register_writes             922541                       # number of times the floating registers were written
system.cpu1.num_func_calls                     950542                       # number of times a function call or return occured
system.cpu1.num_idle_cycles                         0                       # Number of idle cycles
system.cpu1.num_int_alu_accesses             92643600                       # Number of integer alu accesses
system.cpu1.num_int_insts                    92643600                       # number of integer instructions
system.cpu1.num_int_register_reads          179326570                       # number of times the integer registers were read
system.cpu1.num_int_register_writes          74027475                       # number of times the integer registers were written
system.cpu1.num_load_insts                   10886232                       # Number of load instructions
system.cpu1.num_mem_refs                     18158404                       # number of memory refs
system.cpu1.num_store_insts                   7272172                       # Number of store instructions
system.cpu1.num_vec_alu_accesses                    0                       # Number of vector alu accesses
system.cpu1.num_vec_insts                           0                       # number of vector instructions
system.cpu1.num_vec_register_reads                  0                       # number of times the vector registers were read
system.cpu1.num_vec_register_writes                 0                       # number of times the vector registers were written
system.cpu1.op_class::No_OpClass               166601      0.18%      0.18% # Class of executed instruction
system.cpu1.op_class::IntAlu                 74156227     79.41%     79.58% # Class of executed instruction
system.cpu1.op_class::IntMult                  223317      0.24%     79.82% # Class of executed instruction
system.cpu1.op_class::IntDiv                       21      0.00%     79.82% # Class of executed instruction
system.cpu1.op_class::FloatAdd                 117259      0.13%     79.95% # Class of executed instruction
system.cpu1.op_class::FloatCmp                      0      0.00%     79.95% # Class of executed instruction
system.cpu1.op_class::FloatCvt                      0      0.00%     79.95% # Class of executed instruction
system.cpu1.op_class::FloatMult                     0      0.00%     79.95% # Class of executed instruction
system.cpu1.op_class::FloatMultAcc                  0      0.00%     79.95% # Class of executed instruction
system.cpu1.op_class::FloatDiv                      0      0.00%     79.95% # Class of executed instruction
system.cpu1.op_class::FloatMisc                     0      0.00%     79.95% # Class of executed instruction
system.cpu1.op_class::FloatSqrt                     0      0.00%     79.95% # Class of executed instruction
system.cpu1.op_class::SimdAdd                     374      0.00%     79.95% # Class of executed instruction
system.cpu1.op_class::SimdAddAcc                    0      0.00%     79.95% # Class of executed instruction
system.cpu1.op_class::SimdAlu                     100      0.00%     79.95% # Class of executed instruction
system.cpu1.op_class::SimdCmp                       0      0.00%     79.95% # Class of executed instruction
system.cpu1.op_class::SimdCvt                  110372      0.12%     80.07% # Class of executed instruction
system.cpu1.op_class::SimdMisc                 455683      0.49%     80.56% # Class of executed instruction
system.cpu1.op_class::SimdMult                      0      0.00%     80.56% # Class of executed instruction
system.cpu1.op_class::SimdMultAcc                   0      0.00%     80.56% # Class of executed instruction
system.cpu1.op_class::SimdShift                   186      0.00%     80.56% # Class of executed instruction
system.cpu1.op_class::SimdShiftAcc                  0      0.00%     80.56% # Class of executed instruction
system.cpu1.op_class::SimdDiv                       0      0.00%     80.56% # Class of executed instruction
system.cpu1.op_class::SimdSqrt                      0      0.00%     80.56% # Class of executed instruction
system.cpu1.op_class::SimdFloatAdd                  0      0.00%     80.56% # Class of executed instruction
system.cpu1.op_class::SimdFloatAlu                  0      0.00%     80.56% # Class of executed instruction
system.cpu1.op_class::SimdFloatCmp                  0      0.00%     80.56% # Class of executed instruction
system.cpu1.op_class::SimdFloatCvt                  0      0.00%     80.56% # Class of executed instruction
system.cpu1.op_class::SimdFloatDiv                  0      0.00%     80.56% # Class of executed instruction
system.cpu1.op_class::SimdFloatMisc                 0      0.00%     80.56% # Class of executed instruction
system.cpu1.op_class::SimdFloatMult                 0      0.00%     80.56% # Class of executed instruction
system.cpu1.op_class::SimdFloatMultAcc              0      0.00%     80.56% # Class of executed instruction
system.cpu1.op_class::SimdFloatSqrt                 0      0.00%     80.56% # Class of executed instruction
system.cpu1.op_class::SimdReduceAdd                 0      0.00%     80.56% # Class of executed instruction
system.cpu1.op_class::SimdReduceAlu                 0      0.00%     80.56% # Class of executed instruction
system.cpu1.op_class::SimdReduceCmp                 0      0.00%     80.56% # Class of executed instruction
system.cpu1.op_class::SimdFloatReduceAdd            0      0.00%     80.56% # Class of executed instruction
system.cpu1.op_class::SimdFloatReduceCmp            0      0.00%     80.56% # Class of executed instruction
system.cpu1.op_class::SimdAes                       0      0.00%     80.56% # Class of executed instruction
system.cpu1.op_class::SimdAesMix                    0      0.00%     80.56% # Class of executed instruction
system.cpu1.op_class::SimdSha1Hash                  0      0.00%     80.56% # Class of executed instruction
system.cpu1.op_class::SimdSha1Hash2                 0      0.00%     80.56% # Class of executed instruction
system.cpu1.op_class::SimdSha256Hash                0      0.00%     80.56% # Class of executed instruction
system.cpu1.op_class::SimdSha256Hash2               0      0.00%     80.56% # Class of executed instruction
system.cpu1.op_class::SimdShaSigma2                 0      0.00%     80.56% # Class of executed instruction
system.cpu1.op_class::SimdShaSigma3                 0      0.00%     80.56% # Class of executed instruction
system.cpu1.op_class::SimdPredAlu                   0      0.00%     80.56% # Class of executed instruction
system.cpu1.op_class::MemRead                10587180     11.34%     91.89% # Class of executed instruction
system.cpu1.op_class::MemWrite                7082937      7.58%     99.48% # Class of executed instruction
system.cpu1.op_class::FloatMemRead             299052      0.32%     99.80% # Class of executed instruction
system.cpu1.op_class::FloatMemWrite            189235      0.20%    100.00% # Class of executed instruction
system.cpu1.op_class::IprAccess                     0      0.00%    100.00% # Class of executed instruction
system.cpu1.op_class::InstPrefetch                  0      0.00%    100.00% # Class of executed instruction
system.cpu1.op_class::total                  93388544                       # Class of executed instruction
system.cpu1.pwrStateResidencyTicks::ON   186019724000                       # Cumulative time (in ticks) in various power states
system.cpu1.workload.numSyscalls                   56                       # Number of system calls
system.cpu2.Branches                          2151268                       # Number of branches fetched
system.cpu2.committedInsts                   28198701                       # Number of instructions committed
system.cpu2.committedOps                     40144583                       # Number of ops (including micro ops) committed
system.cpu2.dcache.ReadReq_accesses::.cpu2.data      6037636                       # number of ReadReq accesses(hits+misses)
system.cpu2.dcache.ReadReq_accesses::total      6037636                       # number of ReadReq accesses(hits+misses)
system.cpu2.dcache.ReadReq_avg_miss_latency::.cpu2.data 128637.969635                       # average ReadReq miss latency
system.cpu2.dcache.ReadReq_avg_miss_latency::total 128637.969635                       # average ReadReq miss latency
system.cpu2.dcache.ReadReq_avg_mshr_miss_latency::.cpu2.data 126637.972266                       # average ReadReq mshr miss latency
system.cpu2.dcache.ReadReq_avg_mshr_miss_latency::total 126637.972266                       # average ReadReq mshr miss latency
system.cpu2.dcache.ReadReq_hits::.cpu2.data      5277418                       # number of ReadReq hits
system.cpu2.dcache.ReadReq_hits::total        5277418                       # number of ReadReq hits
system.cpu2.dcache.ReadReq_miss_latency::.cpu2.data  97792900000                       # number of ReadReq miss cycles
system.cpu2.dcache.ReadReq_miss_latency::total  97792900000                       # number of ReadReq miss cycles
system.cpu2.dcache.ReadReq_miss_rate::.cpu2.data     0.125913                       # miss rate for ReadReq accesses
system.cpu2.dcache.ReadReq_miss_rate::total     0.125913                       # miss rate for ReadReq accesses
system.cpu2.dcache.ReadReq_misses::.cpu2.data       760218                       # number of ReadReq misses
system.cpu2.dcache.ReadReq_misses::total       760218                       # number of ReadReq misses
system.cpu2.dcache.ReadReq_mshr_miss_latency::.cpu2.data  96272466000                       # number of ReadReq MSHR miss cycles
system.cpu2.dcache.ReadReq_mshr_miss_latency::total  96272466000                       # number of ReadReq MSHR miss cycles
system.cpu2.dcache.ReadReq_mshr_miss_rate::.cpu2.data     0.125913                       # mshr miss rate for ReadReq accesses
system.cpu2.dcache.ReadReq_mshr_miss_rate::total     0.125913                       # mshr miss rate for ReadReq accesses
system.cpu2.dcache.ReadReq_mshr_misses::.cpu2.data       760218                       # number of ReadReq MSHR misses
system.cpu2.dcache.ReadReq_mshr_misses::total       760218                       # number of ReadReq MSHR misses
system.cpu2.dcache.WriteReq_accesses::.cpu2.data      1875500                       # number of WriteReq accesses(hits+misses)
system.cpu2.dcache.WriteReq_accesses::total      1875500                       # number of WriteReq accesses(hits+misses)
system.cpu2.dcache.WriteReq_avg_miss_latency::.cpu2.data 90426.070935                       # average WriteReq miss latency
system.cpu2.dcache.WriteReq_avg_miss_latency::total 90426.070935                       # average WriteReq miss latency
system.cpu2.dcache.WriteReq_avg_mshr_miss_latency::.cpu2.data 88426.070935                       # average WriteReq mshr miss latency
system.cpu2.dcache.WriteReq_avg_mshr_miss_latency::total 88426.070935                       # average WriteReq mshr miss latency
system.cpu2.dcache.WriteReq_hits::.cpu2.data      1873329                       # number of WriteReq hits
system.cpu2.dcache.WriteReq_hits::total       1873329                       # number of WriteReq hits
system.cpu2.dcache.WriteReq_miss_latency::.cpu2.data    196315000                       # number of WriteReq miss cycles
system.cpu2.dcache.WriteReq_miss_latency::total    196315000                       # number of WriteReq miss cycles
system.cpu2.dcache.WriteReq_miss_rate::.cpu2.data     0.001158                       # miss rate for WriteReq accesses
system.cpu2.dcache.WriteReq_miss_rate::total     0.001158                       # miss rate for WriteReq accesses
system.cpu2.dcache.WriteReq_misses::.cpu2.data         2171                       # number of WriteReq misses
system.cpu2.dcache.WriteReq_misses::total         2171                       # number of WriteReq misses
system.cpu2.dcache.WriteReq_mshr_miss_latency::.cpu2.data    191973000                       # number of WriteReq MSHR miss cycles
system.cpu2.dcache.WriteReq_mshr_miss_latency::total    191973000                       # number of WriteReq MSHR miss cycles
system.cpu2.dcache.WriteReq_mshr_miss_rate::.cpu2.data     0.001158                       # mshr miss rate for WriteReq accesses
system.cpu2.dcache.WriteReq_mshr_miss_rate::total     0.001158                       # mshr miss rate for WriteReq accesses
system.cpu2.dcache.WriteReq_mshr_misses::.cpu2.data         2171                       # number of WriteReq MSHR misses
system.cpu2.dcache.WriteReq_mshr_misses::total         2171                       # number of WriteReq MSHR misses
system.cpu2.dcache.avg_blocked_cycles::no_mshrs          nan                       # average number of cycles each access was blocked
system.cpu2.dcache.avg_blocked_cycles::no_targets          nan                       # average number of cycles each access was blocked
system.cpu2.dcache.blocked::no_mshrs                0                       # number of cycles access was blocked
system.cpu2.dcache.blocked::no_targets              0                       # number of cycles access was blocked
system.cpu2.dcache.blocked_cycles::no_mshrs            0                       # number of cycles access was blocked
system.cpu2.dcache.blocked_cycles::no_targets            0                       # number of cycles access was blocked
system.cpu2.dcache.demand_accesses::.cpu2.data      7913136                       # number of demand (read+write) accesses
system.cpu2.dcache.demand_accesses::total      7913136                       # number of demand (read+write) accesses
system.cpu2.dcache.demand_avg_miss_latency::.cpu2.data 128529.156376                       # average overall miss latency
system.cpu2.dcache.demand_avg_miss_latency::total 128529.156376                       # average overall miss latency
system.cpu2.dcache.demand_avg_mshr_miss_latency::.cpu2.data 126529.158999                       # average overall mshr miss latency
system.cpu2.dcache.demand_avg_mshr_miss_latency::total 126529.158999                       # average overall mshr miss latency
system.cpu2.dcache.demand_hits::.cpu2.data      7150747                       # number of demand (read+write) hits
system.cpu2.dcache.demand_hits::total         7150747                       # number of demand (read+write) hits
system.cpu2.dcache.demand_miss_latency::.cpu2.data  97989215000                       # number of demand (read+write) miss cycles
system.cpu2.dcache.demand_miss_latency::total  97989215000                       # number of demand (read+write) miss cycles
system.cpu2.dcache.demand_miss_rate::.cpu2.data     0.096345                       # miss rate for demand accesses
system.cpu2.dcache.demand_miss_rate::total     0.096345                       # miss rate for demand accesses
system.cpu2.dcache.demand_misses::.cpu2.data       762389                       # number of demand (read+write) misses
system.cpu2.dcache.demand_misses::total        762389                       # number of demand (read+write) misses
system.cpu2.dcache.demand_mshr_miss_latency::.cpu2.data  96464439000                       # number of demand (read+write) MSHR miss cycles
system.cpu2.dcache.demand_mshr_miss_latency::total  96464439000                       # number of demand (read+write) MSHR miss cycles
system.cpu2.dcache.demand_mshr_miss_rate::.cpu2.data     0.096345                       # mshr miss rate for demand accesses
system.cpu2.dcache.demand_mshr_miss_rate::total     0.096345                       # mshr miss rate for demand accesses
system.cpu2.dcache.demand_mshr_misses::.cpu2.data       762389                       # number of demand (read+write) MSHR misses
system.cpu2.dcache.demand_mshr_misses::total       762389                       # number of demand (read+write) MSHR misses
system.cpu2.dcache.overall_accesses::.cpu2.data      7913136                       # number of overall (read+write) accesses
system.cpu2.dcache.overall_accesses::total      7913136                       # number of overall (read+write) accesses
system.cpu2.dcache.overall_avg_miss_latency::.cpu2.data 128529.156376                       # average overall miss latency
system.cpu2.dcache.overall_avg_miss_latency::total 128529.156376                       # average overall miss latency
system.cpu2.dcache.overall_avg_mshr_miss_latency::.cpu2.data 126529.158999                       # average overall mshr miss latency
system.cpu2.dcache.overall_avg_mshr_miss_latency::total 126529.158999                       # average overall mshr miss latency
system.cpu2.dcache.overall_hits::.cpu2.data      7150747                       # number of overall hits
system.cpu2.dcache.overall_hits::total        7150747                       # number of overall hits
system.cpu2.dcache.overall_miss_latency::.cpu2.data  97989215000                       # number of overall miss cycles
system.cpu2.dcache.overall_miss_latency::total  97989215000                       # number of overall miss cycles
system.cpu2.dcache.overall_miss_rate::.cpu2.data     0.096345                       # miss rate for overall accesses
system.cpu2.dcache.overall_miss_rate::total     0.096345                       # miss rate for overall accesses
system.cpu2.dcache.overall_misses::.cpu2.data       762389                       # number of overall misses
system.cpu2.dcache.overall_misses::total       762389                       # number of overall misses
system.cpu2.dcache.overall_mshr_miss_latency::.cpu2.data  96464439000                       # number of overall MSHR miss cycles
system.cpu2.dcache.overall_mshr_miss_latency::total  96464439000                       # number of overall MSHR miss cycles
system.cpu2.dcache.overall_mshr_miss_rate::.cpu2.data     0.096345                       # mshr miss rate for overall accesses
system.cpu2.dcache.overall_mshr_miss_rate::total     0.096345                       # mshr miss rate for overall accesses
system.cpu2.dcache.overall_mshr_misses::.cpu2.data       762389                       # number of overall MSHR misses
system.cpu2.dcache.overall_mshr_misses::total       762389                       # number of overall MSHR misses
system.cpu2.dcache.pwrStateResidencyTicks::UNDEFINED 186019724000                       # Cumulative time (in ticks) in various power states
system.cpu2.dcache.replacements                761364                       # number of replacements
system.cpu2.dcache.tags.age_task_id_blocks_1024::0           13                       # Occupied blocks per task id
[...]
system.mem_ctrl.wrPerTurnAround::gmean      17.988871                       # Writes before turning the bus around for reads
system.mem_ctrl.wrPerTurnAround::stdev       1.269810                       # Writes before turning the bus around for reads
system.mem_ctrl.wrPerTurnAround::16             16347     18.25%     18.25% # Writes before turning the bus around for reads
system.mem_ctrl.wrPerTurnAround::17              5119      5.72%     23.97% # Writes before turning the bus around for reads
system.mem_ctrl.wrPerTurnAround::18             38166     42.61%     66.58% # Writes before turning the bus around for reads
system.mem_ctrl.wrPerTurnAround::19             22766     25.42%     92.00% # Writes before turning the bus around for reads
system.mem_ctrl.wrPerTurnAround::20              4757      5.31%     97.31% # Writes before turning the bus around for reads
system.mem_ctrl.wrPerTurnAround::21              1614      1.80%     99.11% # Writes before turning the bus around for reads
system.mem_ctrl.wrPerTurnAround::22               481      0.54%     99.65% # Writes before turning the bus around for reads
system.mem_ctrl.wrPerTurnAround::23               183      0.20%     99.85% # Writes before turning the bus around for reads
system.mem_ctrl.wrPerTurnAround::24                99      0.11%     99.96% # Writes before turning the bus around for reads
system.mem_ctrl.wrPerTurnAround::25                28      0.03%     99.99% # Writes before turning the bus around for reads
system.mem_ctrl.wrPerTurnAround::26                 6      0.01%    100.00% # Writes before turning the bus around for reads
system.mem_ctrl.wrPerTurnAround::28                 1      0.00%    100.00% # Writes before turning the bus around for reads
system.mem_ctrl.wrPerTurnAround::total          89567                       # Writes before turning the bus around for reads
system.mem_ctrl.wrQLenPdf::0                        1                       # What write queue length does an incoming req see
system.mem_ctrl.wrQLenPdf::1                        1                       # What write queue length does an incoming req see
system.mem_ctrl.wrQLenPdf::2                        1                       # What write queue length does an incoming req see
system.mem_ctrl.wrQLenPdf::3                        1                       # What write queue length does an incoming req see
system.mem_ctrl.wrQLenPdf::4                        1                       # What write queue length does an incoming req see
system.mem_ctrl.wrQLenPdf::5                        1                       # What write queue length does an incoming req see
system.mem_ctrl.wrQLenPdf::6                        1                       # What write queue length does an incoming req see
system.mem_ctrl.wrQLenPdf::7                        1                       # What write queue length does an incoming req see
system.mem_ctrl.wrQLenPdf::8                        1                       # What write queue length does an incoming req see
system.mem_ctrl.wrQLenPdf::9                        1                       # What write queue length does an incoming req see
system.mem_ctrl.wrQLenPdf::10                       1                       # What write queue length does an incoming req see
system.mem_ctrl.wrQLenPdf::11                       1                       # What write queue length does an incoming req see
system.mem_ctrl.wrQLenPdf::12                       1                       # What write queue length does an incoming req see
system.mem_ctrl.wrQLenPdf::13                       1                       # What write queue length does an incoming req see
system.mem_ctrl.wrQLenPdf::14                       1                       # What write queue length does an incoming req see
system.mem_ctrl.wrQLenPdf::15                   65030                       # What write queue length does an incoming req see
system.mem_ctrl.wrQLenPdf::16                   71329                       # What write queue length does an incoming req see
system.mem_ctrl.wrQLenPdf::17                   83770                       # What write queue length does an incoming req see
system.mem_ctrl.wrQLenPdf::18                   88459                       # What write queue length does an incoming req see
system.mem_ctrl.wrQLenPdf::19                   90253                       # What write queue length does an incoming req see
system.mem_ctrl.wrQLenPdf::20                   91568                       # What write queue length does an incoming req see
system.mem_ctrl.wrQLenPdf::21                   92547                       # What write queue length does an incoming req see
system.mem_ctrl.wrQLenPdf::22                   93956                       # What write queue length does an incoming req see
system.mem_ctrl.wrQLenPdf::23                   94148                       # What write queue length does an incoming req see
system.mem_ctrl.wrQLenPdf::24                   94504                       # What write queue length does an incoming req see
system.mem_ctrl.wrQLenPdf::25                   95126                       # What write queue length does an incoming req see
system.mem_ctrl.wrQLenPdf::26                   97388                       # What write queue length does an incoming req see
system.mem_ctrl.wrQLenPdf::27                   94341                       # What write queue length does an incoming req see
system.mem_ctrl.wrQLenPdf::28                   96704                       # What write queue length does an incoming req see
system.mem_ctrl.wrQLenPdf::29                   95680                       # What write queue length does an incoming req see
system.mem_ctrl.wrQLenPdf::30                   89942                       # What write queue length does an incoming req see
system.mem_ctrl.wrQLenPdf::31                   89803                       # What write queue length does an incoming req see
system.mem_ctrl.wrQLenPdf::32                   89795                       # What write queue length does an incoming req see
system.mem_ctrl.wrQLenPdf::33                     688                       # What write queue length does an incoming req see
system.mem_ctrl.wrQLenPdf::34                     134                       # What write queue length does an incoming req see
system.mem_ctrl.wrQLenPdf::35                      37                       # What write queue length does an incoming req see
system.mem_ctrl.wrQLenPdf::36                      12                       # What write queue length does an incoming req see
system.mem_ctrl.wrQLenPdf::37                       1                       # What write queue length does an incoming req see
system.mem_ctrl.wrQLenPdf::38                       0                       # What write queue length does an incoming req see
system.mem_ctrl.wrQLenPdf::39                       0                       # What write queue length does an incoming req see
system.mem_ctrl.wrQLenPdf::40                       0                       # What write queue length does an incoming req see
system.mem_ctrl.wrQLenPdf::41                       0                       # What write queue length does an incoming req see
system.mem_ctrl.wrQLenPdf::42                       0                       # What write queue length does an incoming req see
system.mem_ctrl.wrQLenPdf::43                       0                       # What write queue length does an incoming req see
system.mem_ctrl.wrQLenPdf::44                       0                       # What write queue length does an incoming req see
system.mem_ctrl.wrQLenPdf::45                       0                       # What write queue length does an incoming req see
system.mem_ctrl.wrQLenPdf::46                       0                       # What write queue length does an incoming req see
system.mem_ctrl.wrQLenPdf::47                       0                       # What write queue length does an incoming req see
system.mem_ctrl.wrQLenPdf::48                       0                       # What write queue length does an incoming req see
system.mem_ctrl.wrQLenPdf::49                       0                       # What write queue length does an incoming req see
system.mem_ctrl.wrQLenPdf::50                       0                       # What write queue length does an incoming req see
system.mem_ctrl.wrQLenPdf::51                       0                       # What write queue length does an incoming req see
system.mem_ctrl.wrQLenPdf::52                       0                       # What write queue length does an incoming req see
system.mem_ctrl.wrQLenPdf::53                       0                       # What write queue length does an incoming req see
system.mem_ctrl.wrQLenPdf::54                       0                       # What write queue length does an incoming req see
system.mem_ctrl.wrQLenPdf::55                       0                       # What write queue length does an incoming req see
system.mem_ctrl.wrQLenPdf::56                       0                       # What write queue length does an incoming req see
system.mem_ctrl.wrQLenPdf::57                       0                       # What write queue length does an incoming req see
system.mem_ctrl.wrQLenPdf::58                       0                       # What write queue length does an incoming req see
system.mem_ctrl.wrQLenPdf::59                       0                       # What write queue length does an incoming req see
system.mem_ctrl.wrQLenPdf::60                       0                       # What write queue length does an incoming req see
system.mem_ctrl.wrQLenPdf::61                       0                       # What write queue length does an incoming req see
system.mem_ctrl.wrQLenPdf::62                       0                       # What write queue length does an incoming req see
system.mem_ctrl.wrQLenPdf::63                       0                       # What write queue length does an incoming req see
system.mem_ctrl.writeBursts                   1615230                       # Number of DRAM write bursts, including those merged in the write queue
system.mem_ctrl.writePktSize::0                     0                       # Write request sizes (log2)
system.mem_ctrl.writePktSize::1                     0                       # Write request sizes (log2)
system.mem_ctrl.writePktSize::2                     0                       # Write request sizes (log2)
system.mem_ctrl.writePktSize::3                     0                       # Write request sizes (log2)
system.mem_ctrl.writePktSize::4                     0                       # Write request sizes (log2)
system.mem_ctrl.writePktSize::5                     0                       # Write request sizes (log2)
system.mem_ctrl.writePktSize::6               1615230                       # Write request sizes (log2)
system.mem_ctrl.writeReqs                     1615230                       # Number of write requests accepted
system.mem_ctrl.writeRowHitRate                 60.20                       # Row buffer hit rate for writes
system.mem_ctrl.writeRowHits                   972395                       # Number of row buffer hits during writes
system.mem_ctrl_0.actBackEnergy           83214585000                       # Energy for active background per rank (pJ)
system.mem_ctrl_0.actEnergy                8165182620                       # Energy for activate commands per rank (pJ)
system.mem_ctrl_0.actPowerDownEnergy                0                       # Energy for active power-down per rank (pJ)
system.mem_ctrl_0.averagePower             655.337089                       # Core power per rank (mW)
system.mem_ctrl_0.memoryStateTime::IDLE     627556746                       # Time in different power states
system.mem_ctrl_0.memoryStateTime::REF     6211400000                       # Time in different power states
system.mem_ctrl_0.memoryStateTime::SREF             0                       # Time in different power states
system.mem_ctrl_0.memoryStateTime::PRE_PDN            0                       # Time in different power states
system.mem_ctrl_0.memoryStateTime::ACT   179180767254                       # Time in different power states
system.mem_ctrl_0.memoryStateTime::ACT_PDN            0                       # Time in different power states
system.mem_ctrl_0.preBackEnergy            1356134400                       # Energy for precharge background per rank (pJ)
system.mem_ctrl_0.preEnergy                4339889895                       # Energy for precharge commands per rank (pJ)
system.mem_ctrl_0.prePowerDownEnergy                0                       # Energy for precharge power-down per rank (pJ)
system.mem_ctrl_0.readEnergy               5929105980                       # Energy for read commands per rank (pJ)
system.mem_ctrl_0.refreshEnergy          14683749600.000002                       # Energy for refresh commands per rank (pJ)
system.mem_ctrl_0.selfRefreshEnergy                 0                       # Energy for self refresh per rank (pJ)
system.mem_ctrl_0.totalEnergy            121905624495                       # Total energy per rank (pJ)
system.mem_ctrl_0.totalIdleTime                     0                       # Total Idle time Per DRAM Rank
system.mem_ctrl_0.writeEnergy              4216977000                       # Energy for write commands per rank (pJ)
system.mem_ctrl_1.actBackEnergy           83053084620                       # Energy for active background per rank (pJ)
system.mem_ctrl_1.actEnergy                7985168940                       # Energy for activate commands per rank (pJ)
system.mem_ctrl_1.actPowerDownEnergy                0                       # Energy for active power-down per rank (pJ)
system.mem_ctrl_1.averagePower             653.549340                       # Core power per rank (mW)
system.mem_ctrl_1.memoryStateTime::IDLE     746374502                       # Time in different power states
system.mem_ctrl_1.memoryStateTime::REF     6211400000                       # Time in different power states
system.mem_ctrl_1.memoryStateTime::SREF             0                       # Time in different power states
system.mem_ctrl_1.memoryStateTime::PRE_PDN            0                       # Time in different power states
system.mem_ctrl_1.memoryStateTime::ACT   179061949498                       # Time in different power states
system.mem_ctrl_1.memoryStateTime::ACT_PDN            0                       # Time in different power states
system.mem_ctrl_1.preBackEnergy            1492134720                       # Energy for precharge background per rank (pJ)
system.mem_ctrl_1.preEnergy                4244206560                       # Energy for precharge commands per rank (pJ)
system.mem_ctrl_1.prePowerDownEnergy                0                       # Energy for precharge power-down per rank (pJ)
system.mem_ctrl_1.readEnergy               5900346060                       # Energy for read commands per rank (pJ)
system.mem_ctrl_1.refreshEnergy          14683749600.000002                       # Energy for refresh commands per rank (pJ)
system.mem_ctrl_1.selfRefreshEnergy                 0                       # Energy for self refresh per rank (pJ)
system.mem_ctrl_1.totalEnergy            121573067940                       # Total energy per rank (pJ)
system.mem_ctrl_1.totalIdleTime                     0                       # Total Idle time Per DRAM Rank
system.mem_ctrl_1.writeEnergy              4214377440                       # Energy for write commands per rank (pJ)
system.membus.pkt_count_system.l2cache.mem_side::system.mem_ctrl.port      4959359                       # Packet count per connected master and slave (bytes)
system.membus.pkt_count_system.l2cache.mem_side::total      4959359                       # Packet count per connected master and slave (bytes)
system.membus.pkt_count::total                4959359                       # Packet count per connected master and slave (bytes)
system.membus.pkt_size_system.l2cache.mem_side::system.mem_ctrl.port    209409920                       # Cumulative packet size per connected master and slave (bytes)
system.membus.pkt_size_system.l2cache.mem_side::total    209409920                       # Cumulative packet size per connected master and slave (bytes)
system.membus.pkt_size::total               209409920                       # Cumulative packet size per connected master and slave (bytes)
system.membus.pwrStateResidencyTicks::UNDEFINED 186019724000                       # Cumulative time (in ticks) in various power states
system.membus.reqLayer8.occupancy          9795086361                       # Layer occupancy (ticks)
system.membus.reqLayer8.utilization               5.3                       # Layer utilization (%)
system.membus.respLayer0.occupancy         9338301192                       # Layer occupancy (ticks)
system.membus.respLayer0.utilization              5.0                       # Layer utilization (%)
system.membus.snoopTraffic                          0                       # Total snoop traffic (bytes)
system.membus.snoop_fanout::samples           1656802                       # Request fanout histogram
system.membus.snoop_fanout::mean                    0                       # Request fanout histogram
system.membus.snoop_fanout::stdev                   0                       # Request fanout histogram
system.membus.snoop_fanout::underflows              0      0.00%      0.00% # Request fanout histogram
system.membus.snoop_fanout::0                 1656802    100.00%    100.00% # Request fanout histogram
system.membus.snoop_fanout::1                       0      0.00%    100.00% # Request fanout histogram
system.membus.snoop_fanout::overflows               0      0.00%    100.00% # Request fanout histogram
system.membus.snoop_fanout::min_value               0                       # Request fanout histogram
system.membus.snoop_fanout::max_value               0                       # Request fanout histogram
system.membus.snoop_fanout::total             1656802                       # Request fanout histogram
system.membus.snoop_filter.hit_multi_requests            0                       # Number of requests hitting in the snoop filter with multiple (>1) holders of the requested data.
system.membus.snoop_filter.hit_multi_snoops            0                       # Number of snoops hitting in the snoop filter with multiple (>1) holders of the requested data.
system.membus.snoop_filter.hit_single_requests      1645757                       # Number of requests hitting in the snoop filter with a single holder of the requested data.
system.membus.snoop_filter.hit_single_snoops            0                       # Number of snoops hitting in the snoop filter with a single holder of the requested data.
system.membus.snoop_filter.tot_requests       3302559                       # Total number of requests made to the snoop filter.
system.membus.snoop_filter.tot_snoops               0                       # Total number of snoops made to the snoop filter.
system.membus.snoops                                0                       # Total snoops (count)
system.membus.trans_dist::ReadResp            1550029                       # Transaction distribution
system.membus.trans_dist::WritebackDirty      1615230                       # Transaction distribution
system.membus.trans_dist::CleanEvict            30527                       # Transaction distribution
system.membus.trans_dist::ReadExReq            106771                       # Transaction distribution
system.membus.trans_dist::ReadExResp           106771                       # Transaction distribution
system.membus.trans_dist::ReadSharedReq       1550031                       # Transaction distribution

---------- End Simulation Statistics   ----------
