
---------- Begin Simulation Statistics ----------
final_tick                               185567876000                       # Number of ticks from beginning of simulation (restored from checkpoints and never reset)
host_inst_rate                                 366260                       # Simulator instruction rate (inst/s)
host_mem_usage                                 780244                       # Number of bytes of host memory used
host_op_rate                                   658495                       # Simulator op (including micro ops) rate (op/s)
host_seconds                                   486.53                       # Real time elapsed on the host
host_tick_rate                              381413725                       # Simulator tick rate (ticks/s)
sim_freq                                 1000000000000                       # Frequency of simulated ticks
sim_insts                                   178194934                       # Number of instructions simulated
sim_ops                                     320375122                       # Number of ops (including micro ops) simulated
sim_seconds                                  0.185568                       # Number of seconds simulated
sim_ticks                                185567876000                       # Number of ticks simulated
system.clk_domain.clock                          1000                       # Clock period in ticks
system.clk_domain.voltage_domain.voltage            1                       # Voltage in Volts
system.cpu0.Branches                         11271693                       # Number of branches fetched
system.cpu0.committedInsts                   50000000                       # Number of instructions committed
system.cpu0.committedOps                     93416416                       # Number of ops (including micro ops) committed
system.cpu0.dcache.ReadReq_accesses::.cpu0.data     10895037                       # number of ReadReq accesses(hits+misses)
system.cpu0.dcache.ReadReq_accesses::total     10895037                       # number of ReadReq accesses(hits+misses)
system.cpu0.dcache.ReadReq_avg_miss_latency::.cpu0.data 117002.188343                       # average ReadReq miss latency
system.cpu0.dcache.ReadReq_avg_miss_latency::total 117002.188343                       # average ReadReq miss latency
system.cpu0.dcache.ReadReq_avg_mshr_miss_latency::.cpu0.data 115002.188343                       # average ReadReq mshr miss latency
system.cpu0.dcache.ReadReq_avg_mshr_miss_latency::total 115002.188343                       # average ReadReq mshr miss latency
system.cpu0.dcache.ReadReq_hits::.cpu0.data     10881328                       # number of ReadReq hits
system.cpu0.dcache.ReadReq_hits::total       10881328                       # number of ReadReq hits
system.cpu0.dcache.ReadReq_miss_latency::.cpu0.data   1603983000                       # number of ReadReq miss cycles
system.cpu0.dcache.ReadReq_miss_latency::total   1603983000                       # number of ReadReq miss cycles
system.cpu0.dcache.ReadReq_miss_rate::.cpu0.data     0.001258                       # miss rate for ReadReq accesses
system.cpu0.dcache.ReadReq_miss_rate::total     0.001258                       # miss rate for ReadReq accesses
system.cpu0.dcache.ReadReq_misses::.cpu0.data        13709                       # number of ReadReq misses
system.cpu0.dcache.ReadReq_misses::total        13709                       # number of ReadReq misses
system.cpu0.dcache.ReadReq_mshr_miss_latency::.cpu0.data   1576565000                       # number of ReadReq MSHR miss cycles
system.cpu0.dcache.ReadReq_mshr_miss_latency::total   1576565000                       # number of ReadReq MSHR miss cycles
system.cpu0.dcache.ReadReq_mshr_miss_rate::.cpu0.data     0.001258                       # mshr miss rate for ReadReq accesses
system.cpu0.dcache.ReadReq_mshr_miss_rate::total     0.001258                       # mshr miss rate for ReadReq accesses
system.cpu0.dcache.ReadReq_mshr_misses::.cpu0.data        13709                       # number of ReadReq MSHR misses
system.cpu0.dcache.ReadReq_mshr_misses::total        13709                       # number of ReadReq MSHR misses
system.cpu0.dcache.WriteReq_accesses::.cpu0.data      7274294                       # number of WriteReq accesses(hits+misses)
system.cpu0.dcache.WriteReq_accesses::total      7274294                       # number of WriteReq accesses(hits+misses)
system.cpu0.dcache.WriteReq_avg_miss_latency::.cpu0.data 137153.127593                       # average WriteReq miss latency
system.cpu0.dcache.WriteReq_avg_miss_latency::total 137153.127593                       # average WriteReq miss latency
system.cpu0.dcache.WriteReq_avg_mshr_miss_latency::.cpu0.data 135153.127593                       # average WriteReq mshr miss latency
system.cpu0.dcache.WriteReq_avg_mshr_miss_latency::total 135153.127593                       # average WriteReq mshr miss latency
system.cpu0.dcache.WriteReq_hits::.cpu0.data      7222481                       # number of WriteReq hits
system.cpu0.dcache.WriteReq_hits::total       7222481                       # number of WriteReq hits
system.cpu0.dcache.WriteReq_miss_latency::.cpu0.data   7106315000                       # number of WriteReq miss cycles
system.cpu0.dcache.WriteReq_miss_latency::total   7106315000                       # number of WriteReq miss cycles
system.cpu0.dcache.WriteReq_miss_rate::.cpu0.data     0.007123                       # miss rate for WriteReq accesses
system.cpu0.dcache.WriteReq_miss_rate::total     0.007123                       # miss rate for WriteReq accesses
system.cpu0.dcache.WriteReq_misses::.cpu0.data        51813                       # number of WriteReq misses
system.cpu0.dcache.WriteReq_misses::total        51813                       # number of WriteReq misses
system.cpu0.dcache.WriteReq_mshr_miss_latency::.cpu0.data   7002689000                       # number of WriteReq MSHR miss cycles
system.cpu0.dcache.WriteReq_mshr_miss_latency::total   7002689000                       # number of WriteReq MSHR miss cycles
system.cpu0.dcache.WriteReq_mshr_miss_rate::.cpu0.data     0.007123                       # mshr miss rate for WriteReq accesses
system.cpu0.dcache.WriteReq_mshr_miss_rate::total     0.007123                       # mshr miss rate for WriteReq accesses
system.cpu0.dcache.WriteReq_mshr_misses::.cpu0.data        51813                       # number of WriteReq MSHR misses
system.cpu0.dcache.WriteReq_mshr_misses::total        51813                       # number of WriteReq MSHR misses
system.cpu0.dcache.avg_blocked_cycles::no_mshrs          nan                       # average number of cycles each access was blocked
system.cpu0.dcache.avg_blocked_cycles::no_targets          nan                       # average number of cycles each access was blocked
system.cpu0.dcache.blocked::no_mshrs                0                       # number of cycles access was blocked
system.cpu0.dcache.blocked::no_targets              0                       # number of cycles access was blocked
system.cpu0.dcache.blocked_cycles::no_mshrs            0                       # number of cycles access was blocked
system.cpu0.dcache.blocked_cycles::no_targets            0                       # number of cycles access was blocked
system.cpu0.dcache.demand_accesses::.cpu0.data     18169331                       # number of demand (read+write) accesses
system.cpu0.dcache.demand_accesses::total     18169331                       # number of demand (read+write) accesses
system.cpu0.dcache.demand_avg_miss_latency::.cpu0.data 132936.998260                       # average overall miss latency
system.cpu0.dcache.demand_avg_miss_latency::total 132936.998260                       # average overall miss latency
system.cpu0.dcache.demand_avg_mshr_miss_latency::.cpu0.data 130936.998260                       # average overall mshr miss latency
system.cpu0.dcache.demand_avg_mshr_miss_latency::total 130936.998260                       # average overall mshr miss latency
system.cpu0.dcache.demand_hits::.cpu0.data     18103809                       # number of demand (read+write) hits
system.cpu0.dcache.demand_hits::total        18103809                       # number of demand (read+write) hits
system.cpu0.dcache.demand_miss_latency::.cpu0.data   8710298000                       # number of demand (read+write) miss cycles
system.cpu0.dcache.demand_miss_latency::total   8710298000                       # number of demand (read+write) miss cycles
system.cpu0.dcache.demand_miss_rate::.cpu0.data     0.003606                       # miss rate for demand accesses
system.cpu0.dcache.demand_miss_rate::total     0.003606                       # miss rate for demand accesses
system.cpu0.dcache.demand_misses::.cpu0.data        65522                       # number of demand (read+write) misses
system.cpu0.dcache.demand_misses::total         65522                       # number of demand (read+write) misses
system.cpu0.dcache.demand_mshr_miss_latency::.cpu0.data   8579254000                       # number of demand (read+write) MSHR miss cycles
system.cpu0.dcache.demand_mshr_miss_latency::total   8579254000                       # number of demand (read+write) MSHR miss cycles
system.cpu0.dcache.demand_mshr_miss_rate::.cpu0.data     0.003606                       # mshr miss rate for demand accesses
system.cpu0.dcache.demand_mshr_miss_rate::total     0.003606                       # mshr miss rate for demand accesses
system.cpu0.dcache.demand_mshr_misses::.cpu0.data        65522                       # number of demand (read+write) MSHR misses
system.cpu0.dcache.demand_mshr_misses::total        65522                       # number of demand (read+write) MSHR misses
system.cpu0.dcache.overall_accesses::.cpu0.data     18169331                       # number of overall (read+write) accesses
system.cpu0.dcache.overall_accesses::total     18169331                       # number of overall (read+write) accesses
system.cpu0.dcache.overall_avg_miss_latency::.cpu0.data 132936.998260                       # average overall miss latency
system.cpu0.dcache.overall_avg_miss_latency::total 132936.998260                       # average overall miss latency
system.cpu0.dcache.overall_avg_mshr_miss_latency::.cpu0.data 130936.998260                       # average overall mshr miss latency
system.cpu0.dcache.overall_avg_mshr_miss_latency::total 130936.998260                       # average overall mshr miss latency
system.cpu0.dcache.overall_hits::.cpu0.data     18103809                       # number of overall hits
system.cpu0.dcache.overall_hits::total       18103809                       # number of overall hits
system.cpu0.dcache.overall_miss_latency::.cpu0.data   8710298000                       # number of overall miss cycles
system.cpu0.dcache.overall_miss_latency::total   8710298000                       # number of overall miss cycles
system.cpu0.dcache.overall_miss_rate::.cpu0.data     0.003606                       # miss rate for overall accesses
system.cpu0.dcache.overall_miss_rate::total     0.003606                       # miss rate for overall accesses
system.cpu0.dcache.overall_misses::.cpu0.data        65522                       # number of overall misses
system.cpu0.dcache.overall_misses::total        65522                       # number of overall misses
system.cpu0.dcache.overall_mshr_miss_latency::.cpu0.data   8579254000                       # number of overall MSHR miss cycles
system.cpu0.dcache.overall_mshr_miss_latency::total   8579254000                       # number of overall MSHR miss cycles
system.cpu0.dcache.overall_mshr_miss_rate::.cpu0.data     0.003606                       # mshr miss rate for overall accesses
system.cpu0.dcache.overall_mshr_miss_rate::total     0.003606                       # mshr miss rate for overall accesses
system.cpu0.dcache.overall_mshr_misses::.cpu0.data        65522                       # number of overall MSHR misses
system.cpu0.dcache.overall_mshr_misses::total        65522                       # number of overall MSHR misses
system.cpu0.dcache.pwrStateResidencyTicks::UNDEFINED 185567876000                       # Cumulative time (in ticks) in various power states
system.cpu0.dcache.replacements                 64498                       # number of replacements
system.cpu0.dcache.tags.age_task_id_blocks_1024::0            1                       # Occupied blocks per task id
system.cpu0.dcache.tags.age_task_id_blocks_1024::1           18                       # Occupied blocks per task id
system.cpu0.dcache.tags.age_task_id_blocks_1024::2          158                       # Occupied blocks per task id
system.cpu0.dcache.tags.age_task_id_blocks_1024::3          759                       # Occupied blocks per task id
system.cpu0.dcache.tags.age_task_id_blocks_1024::4           88                       # Occupied blocks per task id
system.cpu0.dcache.tags.avg_refs           277.301227                       # Average number of references to valid blocks.
system.cpu0.dcache.tags.data_accesses        36404184                       # Number of data accesses
system.cpu0.dcache.tags.occ_blocks::.cpu0.data  1020.338662                       # Average occupied blocks per requestor
system.cpu0.dcache.tags.occ_percent::.cpu0.data     0.996424                       # Average percentage of cache occupancy
system.cpu0.dcache.tags.occ_percent::total     0.996424                       # Average percentage of cache occupancy
system.cpu0.dcache.tags.occ_task_id_blocks::1024         1024                       # Occupied blocks per task id
system.cpu0.dcache.tags.occ_task_id_percent::1024            1                       # Percentage of cache occupancy per task id
system.cpu0.dcache.tags.pwrStateResidencyTicks::UNDEFINED 185567876000                       # Cumulative time (in ticks) in various power states
system.cpu0.dcache.tags.sampled_refs            65522                       # Sample count of references to valid blocks.
system.cpu0.dcache.tags.tag_accesses         36404184                       # Number of tag accesses
system.cpu0.dcache.tags.tagsinuse         1020.338662                       # Cycle average of tags in use
system.cpu0.dcache.tags.total_refs           18169331                       # Total number of references to valid blocks.
system.cpu0.dcache.tags.warmup_cycle           220000                       # Cycle when the warmup percentage was hit.
system.cpu0.dcache.writebacks::.writebacks        61350                       # number of writebacks
system.cpu0.dcache.writebacks::total            61350                       # number of writebacks
system.cpu0.dtb.rdAccesses                   10895037                       # TLB accesses on read requests
system.cpu0.dtb.rdMisses                         9254                       # TLB misses on read requests
system.cpu0.dtb.walker.pwrStateResidencyTicks::UNDEFINED 185567876000                       # Cumulative time (in ticks) in various power states
system.cpu0.dtb.wrAccesses                    7274294                       # TLB accesses on write requests
system.cpu0.dtb.wrMisses                          896                       # TLB misses on write requests
system.cpu0.icache.ReadReq_accesses::.cpu0.inst     67564204                       # number of ReadReq accesses(hits+misses)
system.cpu0.icache.ReadReq_accesses::total     67564204                       # number of ReadReq accesses(hits+misses)
system.cpu0.icache.ReadReq_avg_miss_latency::.cpu0.inst 26488.870379                       # average ReadReq miss latency
system.cpu0.icache.ReadReq_avg_miss_latency::total 26488.870379                       # average ReadReq miss latency
system.cpu0.icache.ReadReq_avg_mshr_miss_latency::.cpu0.inst 24488.870379                       # average ReadReq mshr miss latency
system.cpu0.icache.ReadReq_avg_mshr_miss_latency::total 24488.870379                       # average ReadReq mshr miss latency
system.cpu0.icache.ReadReq_hits::.cpu0.inst     67338500                       # number of ReadReq hits
system.cpu0.icache.ReadReq_hits::total       67338500                       # number of ReadReq hits
system.cpu0.icache.ReadReq_miss_latency::.cpu0.inst   5978644000                       # number of ReadReq miss cycles
system.cpu0.icache.ReadReq_miss_latency::total   5978644000                       # number of ReadReq miss cycles
system.cpu0.icache.ReadReq_miss_rate::.cpu0.inst     0.003341                       # miss rate for ReadReq accesses
system.cpu0.icache.ReadReq_miss_rate::total     0.003341                       # miss rate for ReadReq accesses
system.cpu0.icache.ReadReq_misses::.cpu0.inst       225704                       # number of ReadReq misses
system.cpu0.icache.ReadReq_misses::total       225704                       # number of ReadReq misses
system.cpu0.icache.ReadReq_mshr_miss_latency::.cpu0.inst   5527236000                       # number of ReadReq MSHR miss cycles
system.cpu0.icache.ReadReq_mshr_miss_latency::total   5527236000                       # number of ReadReq MSHR miss cycles
system.cpu0.icache.ReadReq_mshr_miss_rate::.cpu0.inst     0.003341                       # mshr miss rate for ReadReq accesses
system.cpu0.icache.ReadReq_mshr_miss_rate::total     0.003341                       # mshr miss rate for ReadReq accesses
system.cpu0.icache.ReadReq_mshr_misses::.cpu0.inst       225704                       # number of ReadReq MSHR misses
system.cpu0.icache.ReadReq_mshr_misses::total       225704                       # number of ReadReq MSHR misses
system.cpu0.icache.avg_blocked_cycles::no_mshrs          nan                       # average number of cycles each access was blocked
system.cpu0.icache.avg_blocked_cycles::no_targets          nan                       # average number of cycles each access was blocked
system.cpu0.icache.blocked::no_mshrs                0                       # number of cycles access was blocked
system.cpu0.icache.blocked::no_targets              0                       # number of cycles access was blocked
system.cpu0.icache.blocked_cycles::no_mshrs            0                       # number of cycles access was blocked
system.cpu0.icache.blocked_cycles::no_targets            0                       # number of cycles access was blocked
system.cpu0.icache.demand_accesses::.cpu0.inst     67564204                       # number of demand (read+write) accesses
system.cpu0.icache.demand_accesses::total     67564204                       # number of demand (read+write) accesses
system.cpu0.icache.demand_avg_miss_latency::.cpu0.inst 26488.870379                       # average overall miss latency
system.cpu0.icache.demand_avg_miss_latency::total 26488.870379                       # average overall miss latency
system.cpu0.icache.demand_avg_mshr_miss_latency::.cpu0.inst 24488.870379                       # average overall mshr miss latency
system.cpu0.icache.demand_avg_mshr_miss_latency::total 24488.870379                       # average overall mshr miss latency
system.cpu0.icache.demand_hits::.cpu0.inst     67338500                       # number of demand (read+write) hits
system.cpu0.icache.demand_hits::total        67338500                       # number of demand (read+write) hits
system.cpu0.icache.demand_miss_latency::.cpu0.inst   5978644000                       # number of demand (read+write) miss cycles
system.cpu0.icache.demand_miss_latency::total   5978644000                       # number of demand (read+write) miss cycles
system.cpu0.icache.demand_miss_rate::.cpu0.inst     0.003341                       # miss rate for demand accesses
system.cpu0.icache.demand_miss_rate::total     0.003341                       # miss rate for demand accesses
system.cpu0.icache.demand_misses::.cpu0.inst       225704                       # number of demand (read+write) misses
system.cpu0.icache.demand_misses::total        225704                       # number of demand (read+write) misses
system.cpu0.icache.demand_mshr_miss_latency::.cpu0.inst   5527236000                       # number of demand (read+write) MSHR miss cycles
system.cpu0.icache.demand_mshr_miss_latency::total   5527236000                       # number of demand (read+write) MSHR miss cycles
system.cpu0.icache.demand_mshr_miss_rate::.cpu0.inst     0.003341                       # mshr miss rate for demand accesses
system.cpu0.icache.demand_mshr_miss_rate::total     0.003341                       # mshr miss rate for demand accesses
system.cpu0.icache.demand_mshr_misses::.cpu0.inst       225704                       # number of demand (read+write) MSHR misses
system.cpu0.icache.demand_mshr_misses::total       225704                       # number of demand (read+write) MSHR misses
system.cpu0.icache.overall_accesses::.cpu0.inst     67564204                       # number of overall (read+write) accesses
system.cpu0.icache.overall_accesses::total     67564204                       # number of overall (read+write) accesses
system.cpu0.icache.overall_avg_miss_latency::.cpu0.inst 26488.870379                       # average overall miss latency
system.cpu0.icache.overall_avg_miss_latency::total 26488.870379                       # average overall miss latency
system.cpu0.icache.overall_avg_mshr_miss_latency::.cpu0.inst 24488.870379                       # average overall mshr miss latency
system.cpu0.icache.overall_avg_mshr_miss_latency::total 24488.870379                       # average overall mshr miss latency
system.cpu0.icache.overall_hits::.cpu0.inst     67338500                       # number of overall hits
system.cpu0.icache.overall_hits::total       67338500                       # number of overall hits
system.cpu0.icache.overall_miss_latency::.cpu0.inst   5978644000                       # number of overall miss cycles
system.cpu0.icache.overall_miss_latency::total   5978644000                       # number of overall miss cycles
system.cpu0.icache.overall_miss_rate::.cpu0.inst     0.003341                       # miss rate for overall accesses
system.cpu0.icache.overall_miss_rate::total     0.003341                       # miss rate for overall accesses
system.cpu0.icache.overall_misses::.cpu0.inst       225704                       # number of overall misses
system.cpu0.icache.overall_misses::total       225704                       # number of overall misses
system.cpu0.icache.overall_mshr_miss_latency::.cpu0.inst   5527236000                       # number of overall MSHR miss cycles
system.cpu0.icache.overall_mshr_miss_latency::total   5527236000                       # number of overall MSHR miss cycles
system.cpu0.icache.overall_mshr_miss_rate::.cpu0.inst     0.003341                       # mshr miss rate for overall accesses
system.cpu0.icache.overall_mshr_miss_rate::total     0.003341                       # mshr miss rate for overall accesses
system.cpu0.icache.overall_mshr_misses::.cpu0.inst       225704                       # number of overall MSHR misses
system.cpu0.icache.overall_mshr_misses::total       225704                       # number of overall MSHR misses
system.cpu0.icache.pwrStateResidencyTicks::UNDEFINED 185567876000                       # Cumulative time (in ticks) in various power states
system.cpu0.icache.replacements                225451                       # number of replacements
system.cpu0.icache.tags.age_task_id_blocks_1024::0            6                       # Occupied blocks per task id
system.cpu0.icache.tags.age_task_id_blocks_1024::3           10                       # Occupied blocks per task id
system.cpu0.icache.tags.age_task_id_blocks_1024::4          237                       # Occupied blocks per task id
system.cpu0.icache.tags.avg_refs           299.348722                       # Average number of references to valid blocks.
system.cpu0.icache.tags.data_accesses       135354112                       # Number of data accesses
system.cpu0.icache.tags.occ_blocks::.cpu0.inst   252.703516                       # Average occupied blocks per requestor
system.cpu0.icache.tags.occ_percent::.cpu0.inst     0.987123                       # Average percentage of cache occupancy
system.cpu0.icache.tags.occ_percent::total     0.987123                       # Average percentage of cache occupancy
system.cpu0.icache.tags.occ_task_id_blocks::1024          253                       # Occupied blocks per task id
system.cpu0.icache.tags.occ_task_id_percent::1024     0.988281                       # Percentage of cache occupancy per task id
system.cpu0.icache.tags.pwrStateResidencyTicks::UNDEFINED 185567876000                       # Cumulative time (in ticks) in various power states
system.cpu0.icache.tags.sampled_refs           225704                       # Sample count of references to valid blocks.
system.cpu0.icache.tags.tag_accesses        135354112                       # Number of tag accesses
system.cpu0.icache.tags.tagsinuse          252.703516                       # Cycle average of tags in use
system.cpu0.icache.tags.total_refs           67564204                       # Total number of references to valid blocks.
system.cpu0.icache.tags.warmup_cycle           107000                       # Cycle when the warmup percentage was hit.
system.cpu0.idle_fraction                           0                       # Percentage of idle cycles
system.cpu0.interrupts.clk_domain.clock         16000                       # Clock period in ticks
system.cpu0.interrupts.pwrStateResidencyTicks::UNDEFINED 185567876000                       # Cumulative time (in ticks) in various power states
system.cpu0.itb.rdAccesses                          0                       # TLB accesses on read requests
system.cpu0.itb.rdMisses                            0                       # TLB misses on read requests
system.cpu0.itb.walker.pwrStateResidencyTicks::UNDEFINED 185567876000                       # Cumulative time (in ticks) in various power states
system.cpu0.itb.wrAccesses                   67564204                       # TLB accesses on write requests
system.cpu0.itb.wrMisses                          131                       # TLB misses on write requests
system.cpu0.not_idle_fraction                       1                       # Percentage of non-idle cycles
system.cpu0.numCycles                       185567876                       # number of cpu cycles simulated
system.cpu0.numWorkItemsCompleted                   0                       # number of work items this cpu completed
system.cpu0.numWorkItemsStarted                     0                       # number of work items this cpu started
system.cpu0.num_busy_cycles                 185567876                       # Number of busy cycles
system.cpu0.num_cc_register_reads            57999789                       # number of times the CC registers were read
system.cpu0.num_cc_register_writes           29711192                       # number of times the CC registers were written
system.cpu0.num_conditional_control_insts      9157455                       # number of instructions that are conditional controls
system.cpu0.num_fp_alu_accesses               1222432                       # Number of float alu accesses
system.cpu0.num_fp_insts                      1222432                       # number of float instructions
system.cpu0.num_fp_register_reads             1373816                       # number of times the floating registers were read
system.cpu0.num_fp_register_writes             922801                       # number of times the floating registers were written
system.cpu0.num_func_calls                     950822                       # number of times a function call or return occured
system.cpu0.num_idle_cycles                         0                       # Number of idle cycles
system.cpu0.num_int_alu_accesses             92671260                       # Number of integer alu accesses
system.cpu0.num_int_insts                    92671260                       # number of integer instructions
system.cpu0.num_int_register_reads          179379720                       # number of times the integer registers were read
system.cpu0.num_int_register_writes          74049566                       # number of times the integer registers were written
system.cpu0.num_load_insts                   10889359                       # Number of load instructions
system.cpu0.num_mem_refs                     18163650                       # number of memory refs
system.cpu0.num_store_insts                   7274291                       # Number of store instructions
system.cpu0.num_vec_alu_accesses                    0                       # Number of vector alu accesses
system.cpu0.num_vec_insts                           0                       # number of vector instructions
system.cpu0.num_vec_register_reads                  0                       # number of times the vector registers were read
system.cpu0.num_vec_register_writes                 0                       # number of times the vector registers were written
system.cpu0.op_class::No_OpClass               166650      0.18%      0.18% # Class of executed instruction
system.cpu0.op_class::IntAlu                 74178542     79.41%     79.58% # Class of executed instruction
system.cpu0.op_class::IntMult                  223387      0.24%     79.82% # Class of executed instruction
system.cpu0.op_class::IntDiv                       21      0.00%     79.82% # Class of executed instruction
system.cpu0.op_class::FloatAdd                 117293      0.13%     79.95% # Class of executed instruction
system.cpu0.op_class::FloatCmp                      0      0.00%     79.95% # Class of executed instruction
system.cpu0.op_class::FloatCvt                      0      0.00%     79.95% # Class of executed instruction
system.cpu0.op_class::FloatMult                     0      0.00%     79.95% # Class of executed instruction
system.cpu0.op_class::FloatMultAcc                  0      0.00%     79.95% # Class of executed instruction
system.cpu0.op_class::FloatDiv                      0      0.00%     79.95% # Class of executed instruction
system.cpu0.op_class::FloatMisc                     0      0.00%     79.95% # Class of executed instruction
system.cpu0.op_class::FloatSqrt                     0      0.00%     79.95% # Class of executed instruction
system.cpu0.op_class::SimdAdd                     374      0.00%     79.95% # Class of executed instruction
system.cpu0.op_class::SimdAddAcc                    0      0.00%     79.95% # Class of executed instruction
system.cpu0.op_class::SimdAlu                     100      0.00%     79.95% # Class of executed instruction
system.cpu0.op_class::SimdCmp                       0      0.00%     79.95% # Class of executed instruction
system.cpu0.op_class::SimdCvt                  110402      0.12%     80.07% # Class of executed instruction
system.cpu0.op_class::SimdMisc                 455811      0.49%     80.56% # Class of executed instruction
system.cpu0.op_class::SimdMult                      0      0.00%     80.56% # Class of executed instruction
system.cpu0.op_class::SimdMultAcc                   0      0.00%     80.56% # Class of executed instruction
system.cpu0.op_class::SimdShift                   186      0.00%     80.56% # Class of executed instruction
system.cpu0.op_class::SimdShiftAcc                  0      0.00%     80.56% # Class of executed instruction
system.cpu0.op_class::SimdDiv                       0      0.00%     80.56% # Class of executed instruction
system.cpu0.op_class::SimdSqrt                      0      0.00%     80.56% # Class of executed instruction
system.cpu0.op_class::SimdFloatAdd                  0      0.00%     80.56% # Class of executed instruction
system.cpu0.op_class::SimdFloatAlu                  0      0.00%     80.56% # Class of executed instruction
system.cpu0.op_class::SimdFloatCmp                  0      0.00%     80.56% # Class of executed instruction
system.cpu0.op_class::SimdFloatCvt                  0      0.00%     80.56% # Class of executed instruction
system.cpu0.op_class::SimdFloatDiv                  0      0.00%     80.56% # Class of executed instruction
system.cpu0.op_class::SimdFloatMisc                 0      0.00%     80.56% # Class of executed instruction
system.cpu0.op_class::SimdFloatMult                 0      0.00%     80.56% # Class of executed instruction
system.cpu0.op_class::SimdFloatMultAcc              0      0.00%     80.56% # Class of executed instruction
system.cpu0.op_class::SimdFloatSqrt                 0      0.00%     80.56% # Class of executed instruction
system.cpu0.op_class::SimdReduceAdd                 0      0.00%     80.56% # Class of executed instruction
system.cpu0.op_class::SimdReduceAlu                 0      0.00%     80.56% # Class of executed instruction
system.cpu0.op_class::SimdReduceCmp                 0      0.00%     80.56% # Class of executed instruction
system.cpu0.op_class::SimdFloatReduceAdd            0      0.00%     80.56% # Class of executed instruction
system.cpu0.op_class::SimdFloatReduceCmp            0      0.00%     80.56% # Class of executed instruction
system.cpu0.op_class::SimdAes                       0      0.00%     80.56% # Class of executed instruction
system.cpu0.op_class::SimdAesMix                    0      0.00%     80.56% # Class of executed instruction
system.cpu0.op_class::SimdSha1Hash                  0      0.00%     80.56% # Class of executed instruction
system.cpu0.op_class::SimdSha1Hash2                 0      0.00%     80.56% # Class of executed instruction
system.cpu0.op_class::SimdSha256Hash                0      0.00%     80.56% # Class of executed instruction
system.cpu0.op_class::SimdSha256Hash2               0      0.00%     80.56% # Class of executed instruction
system.cpu0.op_class::SimdShaSigma2                 0      0.00%     80.56% # Class of executed instruction
system.cpu0.op_class::SimdShaSigma3                 0      0.00%     80.56% # Class of executed instruction
system.cpu0.op_class::SimdPredAlu                   0      0.00%     80.56% # Class of executed instruction
system.cpu0.op_class::MemRead                10590223     11.34%     91.89% # Class of executed instruction
system.cpu0.op_class::MemWrite                7085002      7.58%     99.48% # Class of executed instruction
system.cpu0.op_class::FloatMemRead             299136      0.32%     99.80% # Class of executed instruction
system.cpu0.op_class::FloatMemWrite            189289      0.20%    100.00% # Class of executed instruction
system.cpu0.op_class::IprAccess                     0      0.00%    100.00% # Class of executed instruction
system.cpu0.op_class::InstPrefetch                  0      0.00%    100.00% # Class of executed instruction
system.cpu0.op_class::total                  93416416                       # Class of executed instruction
system.cpu0.pwrStateResidencyTicks::ON   185567876000                       # Cumulative time (in ticks) in various power states
system.cpu0.workload.numSyscalls                   56                       # Number of system calls
system.cpu1.Branches                         11266769                       # Number of branches fetched
system.cpu1.committedInsts                   49978834                       # Number of instructions committed
system.cpu1.committedOps                     93376456                       # Number of ops (including micro ops) committed
system.cpu1.dcache.ReadReq_accesses::.cpu1.data     10890551                       # number of ReadReq accesses(hits+misses)
system.cpu1.dcache.ReadReq_accesses::total     10890551                       # number of ReadReq accesses(hits+misses)
system.cpu1.dcache.ReadReq_avg_miss_latency::.cpu1.data 113657.085746                       # average ReadReq miss latency
system.cpu1.dcache.ReadReq_avg_miss_latency::total 113657.085746                       # average ReadReq miss latency
system.cpu1.dcache.ReadReq_avg_mshr_miss_latency::.cpu1.data 111657.085746                       # average ReadReq mshr miss latency
system.cpu1.dcache.ReadReq_avg_mshr_miss_latency::total 111657.085746                       # average ReadReq mshr miss latency
system.cpu1.dcache.ReadReq_hits::.cpu1.data     10876043                       # number of ReadReq hits
system.cpu1.dcache.ReadReq_hits::total       10876043                       # number of ReadReq hits
system.cpu1.dcache.ReadReq_miss_latency::.cpu1.data   1648937000                       # number of ReadReq miss cycles
system.cpu1.dcache.ReadReq_miss_latency::total   1648937000                       # number of ReadReq miss cycles
system.cpu1.dcache.ReadReq_miss_rate::.cpu1.data     0.001332                       # miss rate for ReadReq accesses
system.cpu1.dcache.ReadReq_miss_rate::total     0.001332                       # miss rate for ReadReq accesses
system.cpu1.dcache.ReadReq_misses::.cpu1.data        14508                       # number of ReadReq misses
system.cpu1.dcache.ReadReq_misses::total        14508                       # number of ReadReq misses
system.cpu1.dcache.ReadReq_mshr_miss_latency::.cpu1.data   1619921000                       # number of ReadReq MSHR miss cycles
system.cpu1.dcache.ReadReq_mshr_miss_latency::total   1619921000                       # number of ReadReq MSHR miss cycles
system.cpu1.dcache.ReadReq_mshr_miss_rate::.cpu1.data     0.001332                       # mshr miss rate for ReadReq accesses
system.cpu1.dcache.ReadReq_mshr_miss_rate::total     0.001332                       # mshr miss rate for ReadReq accesses
system.cpu1.dcache.ReadReq_mshr_misses::.cpu1.data        14508                       # number of ReadReq MSHR misses
system.cpu1.dcache.ReadReq_mshr_misses::total        14508                       # number of ReadReq MSHR misses
system.cpu1.dcache.WriteReq_accesses::.cpu1.data      7271255                       # number of WriteReq accesses(hits+misses)
system.cpu1.dcache.WriteReq_accesses::total      7271255                       # number of WriteReq accesses(hits+misses)
system.cpu1.dcache.WriteReq_avg_miss_latency::.cpu1.data 137671.289420                       # average WriteReq miss latency
system.cpu1.dcache.WriteReq_avg_miss_latency::total 137671.289420                       # average WriteReq miss latency
system.cpu1.dcache.WriteReq_avg_mshr_miss_latency::.cpu1.data 135671.289420                       # average WriteReq mshr miss latency
system.cpu1.dcache.WriteReq_avg_mshr_miss_latency::total 135671.289420                       # average WriteReq mshr miss latency
system.cpu1.dcache.WriteReq_hits::.cpu1.data      7219410                       # number of WriteReq hits
system.cpu1.dcache.WriteReq_hits::total       7219410                       # number of WriteReq hits
system.cpu1.dcache.WriteReq_miss_latency::.cpu1.data   7137568000                       # number of WriteReq miss cycles
system.cpu1.dcache.WriteReq_miss_latency::total   7137568000                       # number of WriteReq miss cycles
system.cpu1.dcache.WriteReq_miss_rate::.cpu1.data     0.007130                       # miss rate for WriteReq accesses
system.cpu1.dcache.WriteReq_miss_rate::total     0.007130                       # miss rate for WriteReq accesses
system.cpu1.dcache.WriteReq_misses::.cpu1.data        51845                       # number of WriteReq misses
system.cpu1.dcache.WriteReq_misses::total        51845                       # number of WriteReq misses
system.cpu1.dcache.WriteReq_mshr_miss_latency::.cpu1.data   7033878000                       # number of WriteReq MSHR miss cycles
system.cpu1.dcache.WriteReq_mshr_miss_latency::total   7033878000                       # number of WriteReq MSHR miss cycles
system.cpu1.dcache.WriteReq_mshr_miss_rate::.cpu1.data     0.007130                       # mshr miss rate for WriteReq accesses
system.cpu1.dcache.WriteReq_mshr_miss_rate::total     0.007130                       # mshr miss rate for WriteReq accesses
system.cpu1.dcache.WriteReq_mshr_misses::.cpu1.data        51845                       # number of WriteReq MSHR misses
system.cpu1.dcache.WriteReq_mshr_misses::total        51845                       # number of WriteReq MSHR misses
system.cpu1.dcache.avg_blocked_cycles::no_mshrs          nan                       # average number of cycles each access was blocked
system.cpu1.dcache.avg_blocked_cycles::no_targets          nan                       # average number of cycles each access was blocked
system.cpu1.dcache.blocked::no_mshrs                0                       # number of cycles access was blocked
system.cpu1.dcache.blocked::no_targets              0                       # number of cycles access was blocked
system.cpu1.dcache.blocked_cycles::no_mshrs            0                       # number of cycles access was blocked
system.cpu1.dcache.blocked_cycles::no_targets            0                       # number of cycles access was blocked
system.cpu1.dcache.demand_accesses::.cpu1.data     18161806                       # number of demand (read+write) accesses
system.cpu1.dcache.demand_accesses::total     18161806                       # number of demand (read+write) accesses
system.cpu1.dcache.demand_avg_miss_latency::.cpu1.data 132420.613989                       # average overall miss latency
system.cpu1.dcache.demand_avg_miss_latency::total 132420.613989                       # average overall miss latency
system.cpu1.dcache.demand_avg_mshr_miss_latency::.cpu1.data 130420.613989                       # average overall mshr miss latency
system.cpu1.dcache.demand_avg_mshr_miss_latency::total 130420.613989                       # average overall mshr miss latency
system.cpu1.dcache.demand_hits::.cpu1.data     18095453                       # number of demand (read+write) hits
system.cpu1.dcache.demand_hits::total        18095453                       # number of demand (read+write) hits
system.cpu1.dcache.demand_miss_latency::.cpu1.data   8786505000                       # number of demand (read+write) miss cycles
system.cpu1.dcache.demand_miss_latency::total   8786505000                       # number of demand (read+write) miss cycles
system.cpu1.dcache.demand_miss_rate::.cpu1.data     0.003653                       # miss rate for demand accesses
system.cpu1.dcache.demand_miss_rate::total     0.003653                       # miss rate for demand accesses
system.cpu1.dcache.demand_misses::.cpu1.data        66353                       # number of demand (read+write) misses
system.cpu1.dcache.demand_misses::total         66353                       # number of demand (read+write) misses
system.cpu1.dcache.demand_mshr_miss_latency::.cpu1.data   8653799000                       # number of demand (read+write) MSHR miss cycles
system.cpu1.dcache.demand_mshr_miss_latency::total   8653799000                       # number of demand (read+write) MSHR miss cycles
system.cpu1.dcache.demand_mshr_miss_rate::.cpu1.data     0.003653                       # mshr miss rate for demand accesses
system.cpu1.dcache.demand_mshr_miss_rate::total     0.003653                       # mshr miss rate for demand accesses
system.cpu1.dcache.demand_mshr_misses::.cpu1.data        66353                       # number of demand (read+write) MSHR misses
system.cpu1.dcache.demand_mshr_misses::total        66353                       # number of demand (read+write) MSHR misses
system.cpu1.dcache.overall_accesses::.cpu1.data     18161806                       # number of overall (read+write) accesses
system.cpu1.dcache.overall_accesses::total     18161806                       # number of overall (read+write) accesses
system.cpu1.dcache.overall_avg_miss_latency::.cpu1.data 132420.613989                       # average overall miss latency
system.cpu1.dcache.overall_avg_miss_latency::total 132420.613989                       # average overall miss latency
system.cpu1.dcache.overall_avg_mshr_miss_latency::.cpu1.data 130420.613989                       # average overall mshr miss latency
system.cpu1.dcache.overall_avg_mshr_miss_latency::total 130420.613989                       # average overall mshr miss latency
system.cpu1.dcache.overall_hits::.cpu1.data     18095453                       # number of overall hits
system.cpu1.dcache.overall_hits::total       18095453                       # number of overall hits
system.cpu1.dcache.overall_miss_latency::.cpu1.data   8786505000                       # number of overall miss cycles
system.cpu1.dcache.overall_miss_latency::total   8786505000                       # number of overall miss cycles
system.cpu1.dcache.overall_miss_rate::.cpu1.data     0.003653                       # miss rate for overall accesses
system.cpu1.dcache.overall_miss_rate::total     0.003653                       # miss rate for overall accesses
system.cpu1.dcache.overall_misses::.cpu1.data        66353                       # number of overall misses
system.cpu1.dcache.overall_misses::total        66353                       # number of overall misses
system.cpu1.dcache.overall_mshr_miss_latency::.cpu1.data   8653799000                       # number of overall MSHR miss cycles
system.cpu1.dcache.overall_mshr_miss_latency::total   8653799000                       # number of overall MSHR miss cycles
system.cpu1.dcache.overall_mshr_miss_rate::.cpu1.data     0.003653                       # mshr miss rate for overall accesses
system.cpu1.dcache.overall_mshr_miss_rate::total     0.003653                       # mshr miss rate for overall accesses
system.cpu1.dcache.overall_mshr_misses::.cpu1.data        66353                       # number of overall MSHR misses
system.cpu1.dcache.overall_mshr_misses::total        66353                       # number of overall MSHR misses
system.cpu1.dcache.pwrStateResidencyTicks::UNDEFINED 185567876000                       # Cumulative time (in ticks) in various power states
system.cpu1.dcache.replacements                 65329                       # number of replacements
system.cpu1.dcache.tags.age_task_id_blocks_1024::0            1                       # Occupied blocks per task id
system.cpu1.dcache.tags.age_task_id_blocks_1024::1           18                       # Occupied blocks per task id
system.cpu1.dcache.tags.age_task_id_blocks_1024::2          166                       # Occupied blocks per task id
system.cpu1.dcache.tags.age_task_id_blocks_1024::3          771                       # Occupied blocks per task id
system.cpu1.dcache.tags.age_task_id_blocks_1024::4           68                       # Occupied blocks per task id
system.cpu1.dcache.tags.avg_refs           273.714919                       # Average number of references to valid blocks.
system.cpu1.dcache.tags.data_accesses        36389965                       # Number of data accesses
system.cpu1.dcache.tags.occ_blocks::.cpu1.data  1020.558703                       # Average occupied blocks per requestor
system.cpu1.dcache.tags.occ_percent::.cpu1.data     0.996639                       # Average percentage of cache occupancy
system.cpu1.dcache.tags.occ_percent::total     0.996639                       # Average percentage of cache occupancy
system.cpu1.dcache.tags.occ_task_id_blocks::1024         1024                       # Occupied blocks per task id
system.cpu1.dcache.tags.occ_task_id_percent::1024            1                       # Percentage of cache occupancy per task id
system.cpu1.dcache.tags.pwrStateResidencyTicks::UNDEFINED 185567876000                       # Cumulative time (in ticks) in various power states
system.cpu1.dcache.tags.sampled_refs            66353                       # Sample count of references to valid blocks.
system.cpu1.dcache.tags.tag_accesses         36389965                       # Number of tag accesses
system.cpu1.dcache.tags.tagsinuse         1020.558703                       # Cycle average of tags in use
system.cpu1.dcache.tags.total_refs           18161806                       # Total number of references to valid blocks.
system.cpu1.dcache.tags.warmup_cycle           283000                       # Cycle when the warmup percentage was hit.
system.cpu1.dcache.writebacks::.writebacks        61452                       # number of writebacks
system.cpu1.dcache.writebacks::total            61452                       # number of writebacks
system.cpu1.dtb.rdAccesses                   10890551                       # TLB accesses on read requests
system.cpu1.dtb.rdMisses                         9244                       # TLB misses on read requests
system.cpu1.dtb.walker.pwrStateResidencyTicks::UNDEFINED 185567876000                       # Cumulative time (in ticks) in various power states
system.cpu1.dtb.wrAccesses                    7271255                       # TLB accesses on write requests
system.cpu1.dtb.wrMisses                          896                       # TLB misses on write requests
system.cpu1.icache.ReadReq_accesses::.cpu1.inst     67535670                       # number of ReadReq accesses(hits+misses)
system.cpu1.icache.ReadReq_accesses::total     67535670                       # number of ReadReq accesses(hits+misses)
system.cpu1.icache.ReadReq_avg_miss_latency::.cpu1.inst 26487.868661                       # average ReadReq miss latency
system.cpu1.icache.ReadReq_avg_miss_latency::total 26487.868661                       # average ReadReq miss latency
system.cpu1.icache.ReadReq_avg_mshr_miss_latency::.cpu1.inst 24487.868661                       # average ReadReq mshr miss latency
system.cpu1.icache.ReadReq_avg_mshr_miss_latency::total 24487.868661                       # average ReadReq mshr miss latency
system.cpu1.icache.ReadReq_hits::.cpu1.inst     67310056                       # number of ReadReq hits
system.cpu1.icache.ReadReq_hits::total       67310056                       # number of ReadReq hits
system.cpu1.icache.ReadReq_miss_latency::.cpu1.inst   5976034000                       # number of ReadReq miss cycles
system.cpu1.icache.ReadReq_miss_latency::total   5976034000                       # number of ReadReq miss cycles
system.cpu1.icache.ReadReq_miss_rate::.cpu1.inst     0.003341                       # miss rate for ReadReq accesses
system.cpu1.icache.ReadReq_miss_rate::total     0.003341                       # miss rate for ReadReq accesses
system.cpu1.icache.ReadReq_misses::.cpu1.inst       225614                       # number of ReadReq misses
system.cpu1.icache.ReadReq_misses::total       225614                       # number of ReadReq misses
system.cpu1.icache.ReadReq_mshr_miss_latency::.cpu1.inst   5524806000                       # number of ReadReq MSHR miss cycles
system.cpu1.icache.ReadReq_mshr_miss_latency::total   5524806000                       # number of ReadReq MSHR miss cycles
system.cpu1.icache.ReadReq_mshr_miss_rate::.cpu1.inst     0.003341                       # mshr miss rate for ReadReq accesses
system.cpu1.icache.ReadReq_mshr_miss_rate::total     0.003341                       # mshr miss rate for ReadReq accesses
system.cpu1.icache.ReadReq_mshr_misses::.cpu1.inst       225614                       # number of ReadReq MSHR misses
system.cpu1.icache.ReadReq_mshr_misses::total       225614                       # number of ReadReq MSHR misses
system.cpu1.icache.avg_blocked_cycles::no_mshrs          nan                       # average number of cycles each access was blocked
system.cpu1.icache.avg_blocked_cycles::no_targets          nan                       # average number of cycles each access was blocked
system.cpu1.icache.blocked::no_mshrs                0                       # number of cycles access was blocked
system.cpu1.icache.blocked::no_targets              0                       # number of cycles access was blocked
system.cpu1.icache.blocked_cycles::no_mshrs            0                       # number of cycles access was blocked
system.cpu1.icache.blocked_cycles::no_targets            0                       # number of cycles access was blocked
system.cpu1.icache.demand_accesses::.cpu1.inst     67535670                       # number of demand (read+write) accesses
system.cpu1.icache.demand_accesses::total     67535670                       # number of demand (read+write) accesses
system.cpu1.icache.demand_avg_miss_latency::.cpu1.inst 26487.868661                       # average overall miss latency
system.cpu1.icache.demand_avg_miss_latency::total 26487.868661                       # average overall miss latency
system.cpu1.icache.demand_avg_mshr_miss_latency::.cpu1.inst 24487.868661                       # average overall mshr miss latency
system.cpu1.icache.demand_avg_mshr_miss_latency::total 24487.868661                       # average overall mshr miss latency
system.cpu1.icache.demand_hits::.cpu1.inst     67310056                       # number of demand (read+write) hits
system.cpu1.icache.demand_hits::total        67310056                       # number of demand (read+write) hits
system.cpu1.icache.demand_miss_latency::.cpu1.inst   5976034000                       # number of demand (read+write) miss cycles
system.cpu1.icache.demand_miss_latency::total   5976034000                       # number of demand (read+write) miss cycles
system.cpu1.icache.demand_miss_rate::.cpu1.inst     0.003341                       # miss rate for demand accesses
system.cpu1.icache.demand_miss_rate::total     0.003341                       # miss rate for demand accesses
system.cpu1.icache.demand_misses::.cpu1.inst       225614                       # number of demand (read+write) misses
system.cpu1.icache.demand_misses::total        225614                       # number of demand (read+write) misses
system.cpu1.icache.demand_mshr_miss_latency::.cpu1.inst   5524806000                       # number of demand (read+write) MSHR miss cycles
system.cpu1.icache.demand_mshr_miss_latency::total   5524806000                       # number of demand (read+write) MSHR miss cycles
system.cpu1.icache.demand_mshr_miss_rate::.cpu1.inst     0.003341                       # mshr miss rate for demand accesses
system.cpu1.icache.demand_mshr_miss_rate::total     0.003341                       # mshr miss rate for demand accesses
system.cpu1.icache.demand_mshr_misses::.cpu1.inst       225614                       # number of demand (read+write) MSHR misses
system.cpu1.icache.demand_mshr_misses::total       225614                       # number of demand (read+write) MSHR misses
system.cpu1.icache.overall_accesses::.cpu1.inst     67535670                       # number of overall (read+write) accesses
system.cpu1.icache.overall_accesses::total     67535670                       # number of overall (read+write) accesses
system.cpu1.icache.overall_avg_miss_latency::.cpu1.inst 26487.868661                       # average overall miss latency
system.cpu1.icache.overall_avg_miss_latency::total 26487.868661                       # average overall miss latency
system.cpu1.icache.overall_avg_mshr_miss_latency::.cpu1.inst 24487.868661                       # average overall mshr miss latency
system.cpu1.icache.overall_avg_mshr_miss_latency::total 24487.868661                       # average overall mshr miss latency
system.cpu1.icache.overall_hits::.cpu1.inst     67310056                       # number of overall hits
system.cpu1.icache.overall_hits::total       67310056                       # number of overall hits
system.cpu1.icache.overall_miss_latency::.cpu1.inst   5976034000                       # number of overall miss cycles
system.cpu1.icache.overall_miss_latency::total   5976034000                       # number of overall miss cycles
system.cpu1.icache.overall_miss_rate::.cpu1.inst     0.003341                       # miss rate for overall accesses
system.cpu1.icache.overall_miss_rate::total     0.003341                       # miss rate for overall accesses
system.cpu1.icache.overall_misses::.cpu1.inst       225614                       # number of overall misses
system.cpu1.icache.overall_misses::total       225614                       # number of overall misses
system.cpu1.icache.overall_mshr_miss_latency::.cpu1.inst   5524806000                       # number of overall MSHR miss cycles
system.cpu1.icache.overall_mshr_miss_latency::total   5524806000                       # number of overall MSHR miss cycles
system.cpu1.icache.overall_mshr_miss_rate::.cpu1.inst     0.003341                       # mshr miss rate for overall accesses
system.cpu1.icache.overall_mshr_miss_rate::total     0.003341                       # mshr miss rate for overall accesses
system.cpu1.icache.overall_mshr_misses::.cpu1.inst       225614                       # number of overall MSHR misses
system.cpu1.icache.overall_mshr_misses::total       225614                       # number of overall MSHR misses
system.cpu1.icache.pwrStateResidencyTicks::UNDEFINED 185567876000                       # Cumulative time (in ticks) in various power states
system.cpu1.icache.replacements                225361                       # number of replacements
system.cpu1.icache.tags.age_task_id_blocks_1024::0            6                       # Occupied blocks per task id
system.cpu1.icache.tags.age_task_id_blocks_1024::3           10                       # Occupied blocks per task id
system.cpu1.icache.tags.age_task_id_blocks_1024::4          237                       # Occupied blocks per task id
system.cpu1.icache.tags.avg_refs           299.341663                       # Average number of references to valid blocks.
system.cpu1.icache.tags.data_accesses       135296954                       # Number of data accesses
system.cpu1.icache.tags.occ_blocks::.cpu1.inst   252.702375                       # Average occupied blocks per requestor
system.cpu1.icache.tags.occ_percent::.cpu1.inst     0.987119                       # Average percentage of cache occupancy
system.cpu1.icache.tags.occ_percent::total     0.987119                       # Average percentage of cache occupancy
system.cpu1.icache.tags.occ_task_id_blocks::1024          253                       # Occupied blocks per task id
system.cpu1.icache.tags.occ_task_id_percent::1024     0.988281                       # Percentage of cache occupancy per task id
system.cpu1.icache.tags.pwrStateResidencyTicks::UNDEFINED 185567876000                       # Cumulative time (in ticks) in various power states
system.cpu1.icache.tags.sampled_refs           225614                       # Sample count of references to valid blocks.
system.cpu1.icache.tags.tag_accesses        135296954                       # Number of tag accesses
system.cpu1.icache.tags.tagsinuse          252.702375                       # Cycle average of tags in use
system.cpu1.icache.tags.total_refs           67535670                       # Total number of references to valid blocks.
system.cpu1.icache.tags.warmup_cycle           156000                       # Cycle when the warmup percentage was hit.
system.cpu1.idle_fraction                           0                       # Percentage of idle cycles
system.cpu1.interrupts.clk_domain.clock         16000                       # Clock period in ticks
system.cpu1.interrupts.pwrStateResidencyTicks::UNDEFINED 185567876000                       # Cumulative time (in ticks) in various power states
system.cpu1.itb.rdAccesses                          0                       # TLB accesses on read requests
system.cpu1.itb.rdMisses                            0                       # TLB misses on read requests
system.cpu1.itb.walker.pwrStateResidencyTicks::UNDEFINED 185567876000                       # Cumulative time (in ticks) in various power states
system.cpu1.itb.wrAccesses                   67535670                       # TLB accesses on write requests
system.cpu1.itb.wrMisses                          137                       # TLB misses on write requests
system.cpu1.not_idle_fraction                       1                       # Percentage of non-idle cycles
system.cpu1.numCycles                       185567875                       # number of cpu cycles simulated
system.cpu1.numWorkItemsCompleted                   0                       # number of work items this cpu completed
system.cpu1.numWorkItemsStarted                     0                       # number of work items this cpu started
system.cpu1.num_busy_cycles                 185567875                       # Number of busy cycles
system.cpu1.num_cc_register_reads            57974581                       # number of times the CC registers were read
system.cpu1.num_cc_register_writes           29698610                       # number of times the CC registers were written
system.cpu1.num_conditional_control_insts      9153441                       # number of instructions that are conditional controls
system.cpu1.num_fp_alu_accesses               1221932                       # Number of float alu accesses
system.cpu1.num_fp_insts                      1221932                       # number of float instructions
system.cpu1.num_fp_register_reads             1373260                       # number of times the floating registers were read
system.cpu1.num_fp_register_writes             922425                       # number of times the floating registers were written
system.cpu1.num_func_calls                     950422                       # number of times a function call or return occured
system.cpu1.num_idle_cycles                         0                       # Number of idle cycles
system.cpu1.num_int_alu_accesses             92631605                       # Number of integer alu accesses
system.cpu1.num_int_insts                    92631605                       # number of integer instructions
system.cpu1.num_int_register_reads          179303538                       # number of times the integer registers were read
system.cpu1.num_int_register_writes          74017897                       # number of times the integer registers were written
system.cpu1.num_load_insts                   10884876                       # Number of load instructions
system.cpu1.num_mem_refs                     18156128                       # number of memory refs
system.cpu1.num_store_insts                   7271252                       # Number of store instructions
system.cpu1.num_vec_alu_accesses                    0                       # Number of vector alu accesses
system.cpu1.num_vec_insts                           0                       # number of vector instructions
system.cpu1.num_vec_register_reads                  0                       # number of times the vector registers were read
system.cpu1.num_vec_register_writes                 0                       # number of times the vector registers were written
system.cpu1.op_class::No_OpClass               166580      0.18%      0.18% # Class of executed instruction
system.cpu1.op_class::IntAlu                 74146551     79.41%     79.58% # Class of executed instruction
system.cpu1.op_class::IntMult                  223287      0.24%     79.82% # Class of executed instruction
system.cpu1.op_class::IntDiv                       21      0.00%     79.82% # Class of executed instruction
system.cpu1.op_class::FloatAdd                 117244      0.13%     79.95% # Class of executed instruction
system.cpu1.op_class::FloatCmp                      0      0.00%     79.95% # Class of executed instruction
system.cpu1.op_class::FloatCvt                      0      0.00%     79.95% # Class of executed instruction
system.cpu1.op_class::FloatMult                     0      0.00%     79.95% # Class of executed instruction
system.cpu1.op_class::FloatMultAcc                  0      0.00%     79.95% # Class of executed instruction
system.cpu1.op_class::FloatDiv                      0      0.00%     79.95% # Class of executed instruction
system.cpu1.op_class::FloatMisc                     0      0.00%     79.95% # Class of executed instruction
system.cpu1.op_class::FloatSqrt                     0      0.00%     79.95% # Class of executed instruction
system.cpu1.op_class::SimdAdd                     374      0.00%     79.95% # Class of executed instruction
system.cpu1.op_class::SimdAddAcc                    0      0.00%     79.95% # Class of executed instruction
system.cpu1.op_class::SimdAlu                     100      0.00%     79.95% # Class of executed instruction
system.cpu1.op_class::SimdCmp                       0      0.00%     79.95% # Class of executed instruction
system.cpu1.op_class::SimdCvt                  110358      0.12%     80.07% # Class of executed instruction
system.cpu1.op_class::SimdMisc                 455627      0.49%     80.56% # Class of executed instruction
system.cpu1.op_class::SimdMult                      0      0.00%     80.56% # Class of executed instruction
system.cpu1.op_class::SimdMultAcc                   0      0.00%     80.56% # Class of executed instruction
system.cpu1.op_class::SimdShift                   186      0.00%     80.56% # Class of executed instruction
system.cpu1.op_class::SimdShiftAcc                  0      0.00%     80.56% # Class of executed instruction
system.cpu1.op_class::SimdDiv                       0      0.00%     80.56% # Class of executed instruction
system.cpu1.op_class::SimdSqrt                      0      0.00%     80.56% # Class of executed instruction
system.cpu1.op_class::SimdFloatAdd                  0      0.00%     80.56% # Class of executed instruction
system.cpu1.op_class::SimdFloatAlu                  0      0.00%     80.56% # Class of executed instruction
system.cpu1.op_class::SimdFloatCmp                  0      0.00%     80.56% # Class of executed instruction
system.cpu1.op_class::SimdFloatCvt                  0      0.00%     80.56% # Class of executed instruction
system.cpu1.op_class::SimdFloatDiv                  0      0.00%     80.56% # Class of executed instruction
system.cpu1.op_class::SimdFloatMisc                 0      0.00%     80.56% # Class of executed instruction
system.cpu1.op_class::SimdFloatMult                 0      0.00%     80.56% # Class of executed instruction
system.cpu1.op_class::SimdFloatMultAcc              0      0.00%     80.56% # Class of executed instruction
system.cpu1.op_class::SimdFloatSqrt                 0      0.00%     80.56% # Class of executed instruction
system.cpu1.op_class::SimdReduceAdd                 0      0.00%     80.56% # Class of executed instruction
system.cpu1.op_class::SimdReduceAlu                 0      0.00%     80.56% # Class of executed instruction
system.cpu1.op_class::SimdReduceCmp                 0      0.00%     80.56% # Class of executed instruction
system.cpu1.op_class::SimdFloatReduceAdd            0      0.00%     80.56% # Class of executed instruction
system.cpu1.op_class::SimdFloatReduceCmp            0      0.00%     80.56% # Class of executed instruction
system.cpu1.op_class::SimdAes                       0      0.00%     80.56% # Class of executed instruction
system.cpu1.op_class::SimdAesMix                    0      0.00%     80.56% # Class of executed instruction
system.cpu1.op_class::SimdSha1Hash                  0      0.00%     80.56% # Class of executed instruction
system.cpu1.op_class::SimdSha1Hash2                 0      0.00%     80.56% # Class of executed instruction
system.cpu1.op_class::SimdSha256Hash                0      0.00%     80.56% # Class of executed instruction
system.cpu1.op_class::SimdSha256Hash2               0      0.00%     80.56% # Class of executed instruction
system.cpu1.op_class::SimdShaSigma2                 0      0.00%     80.56% # Class of executed instruction
system.cpu1.op_class::SimdShaSigma3                 0      0.00%     80.56% # Class of executed instruction
system.cpu1.op_class::SimdPredAlu                   0      0.00%     80.56% # Class of executed instruction
system.cpu1.op_class::MemRead                10585863     11.34%     91.89% # Class of executed instruction
system.cpu1.op_class::MemWrite                7082043      7.58%     99.48% # Class of executed instruction
system.cpu1.op_class::FloatMemRead             299013      0.32%     99.80% # Class of executed instruction
system.cpu1.op_class::FloatMemWrite            189209      0.20%    100.00% # Class of executed instruction
system.cpu1.op_class::IprAccess                     0      0.00%    100.00% # Class of executed instruction
system.cpu1.op_class::InstPrefetch                  0      0.00%    100.00% # Class of executed instruction
system.cpu1.op_class::total                  93376456                       # Class of executed instruction
system.cpu1.pwrStateResidencyTicks::ON   185567876000                       # Cumulative time (in ticks) in various power states
system.cpu1.workload.numSyscalls                   56                       # Number of system calls
system.cpu2.Branches                         11270212                       # Number of branches fetched
system.cpu2.committedInsts                   49993634                       # Number of instructions committed
system.cpu2.committedOps                     93404396                       # Number of ops (including micro ops) committed
system.cpu2.dcache.ReadReq_accesses::.cpu2.data     10893686                       # number of ReadReq accesses(hits+misses)
system.cpu2.dcache.ReadReq_accesses::total     10893686                       # number of ReadReq accesses(hits+misses)
system.cpu2.dcache.ReadReq_avg_miss_latency::.cpu2.data 115321.256381                       # average ReadReq miss latency
system.cpu2.dcache.ReadReq_avg_miss_latency::total 115321.256381                       # average ReadReq miss latency
system.cpu2.dcache.ReadReq_avg_mshr_miss_latency::.cpu2.data 113321.256381                       # average ReadReq mshr miss latency
system.cpu2.dcache.ReadReq_avg_mshr_miss_latency::total 113321.256381                       # average ReadReq mshr miss latency
system.cpu2.dcache.ReadReq_hits::.cpu2.data     10879582                       # number of ReadReq hits
system.cpu2.dcache.ReadReq_hits::total       10879582                       # number of ReadReq hits
system.cpu2.dcache.ReadReq_miss_latency::.cpu2.data   1626491000                       # number of ReadReq miss cycles
system.cpu2.dcache.ReadReq_miss_latency::total   1626491000                       # number of ReadReq miss cycles
system.cpu2.dcache.ReadReq_miss_rate::.cpu2.data     0.001295                       # miss rate for ReadReq accesses
system.cpu2.dcache.ReadReq_miss_rate::total     0.001295                       # miss rate for ReadReq accesses
system.cpu2.dcache.ReadReq_misses::.cpu2.data        14104                       # number of ReadReq misses
system.cpu2.dcache.ReadReq_misses::total        14104                       # number of ReadReq misses
system.cpu2.dcache.ReadReq_mshr_miss_latency::.cpu2.data   1598283000                       # number of ReadReq MSHR miss cycles
system.cpu2.dcache.ReadReq_mshr_miss_latency::total   1598283000                       # number of ReadReq MSHR miss cycles
system.cpu2.dcache.ReadReq_mshr_miss_rate::.cpu2.data     0.001295                       # mshr miss rate for ReadReq accesses
system.cpu2.dcache.ReadReq_mshr_miss_rate::total     0.001295                       # mshr miss rate for ReadReq accesses
system.cpu2.dcache.ReadReq_mshr_misses::.cpu2.data        14104                       # number of ReadReq MSHR misses
system.cpu2.dcache.ReadReq_mshr_misses::total        14104                       # number of ReadReq MSHR misses
system.cpu2.dcache.WriteReq_accesses::.cpu2.data      7273382                       # number of WriteReq accesses(hits+misses)
system.cpu2.dcache.WriteReq_accesses::total      7273382                       # number of WriteReq accesses(hits+misses)
system.cpu2.dcache.WriteReq_avg_miss_latency::.cpu2.data 137212.403729                       # average WriteReq miss latency
system.cpu2.dcache.WriteReq_avg_miss_latency::total 137212.403729                       # average WriteReq miss latency
system.cpu2.dcache.WriteReq_avg_mshr_miss_latency::.cpu2.data 135212.403729                       # average WriteReq mshr miss latency
system.cpu2.dcache.WriteReq_avg_mshr_miss_latency::total 135212.403729                       # average WriteReq mshr miss latency
system.cpu2.dcache.WriteReq_hits::.cpu2.data      7221575                       # number of WriteReq hits
system.cpu2.dcache.WriteReq_hits::total       7221575                       # number of WriteReq hits
system.cpu2.dcache.WriteReq_miss_latency::.cpu2.data   7108563000                       # number of WriteReq miss cycles
system.cpu2.dcache.WriteReq_miss_latency::total   7108563000                       # number of WriteReq miss cycles
system.cpu2.dcache.WriteReq_miss_rate::.cpu2.data     0.007123                       # miss rate for WriteReq accesses
system.cpu2.dcache.WriteReq_miss_rate::total     0.007123                       # miss rate for WriteReq accesses
system.cpu2.dcache.WriteReq_misses::.cpu2.data        51807                       # number of WriteReq misses
system.cpu2.dcache.WriteReq_misses::total        51807                       # number of WriteReq misses
system.cpu2.dcache.WriteReq_mshr_miss_latency::.cpu2.data   7004949000                       # number of WriteReq MSHR miss cycles
system.cpu2.dcache.WriteReq_mshr_miss_latency::total   7004949000                       # number of WriteReq MSHR miss cycles
system.cpu2.dcache.WriteReq_mshr_miss_rate::.cpu2.data     0.007123                       # mshr miss rate for WriteReq accesses
system.cpu2.dcache.WriteReq_mshr_miss_rate::total     0.007123                       # mshr miss rate for WriteReq accesses
system.cpu2.dcache.WriteReq_mshr_misses::.cpu2.data        51807                       # number of WriteReq MSHR misses
system.cpu2.dcache.WriteReq_mshr_misses::total        51807                       # number of WriteReq MSHR misses
system.cpu2.dcache.avg_blocked_cycles::no_mshrs          nan                       # average number of cycles each access was blocked
system.cpu2.dcache.avg_blocked_cycles::no_targets          nan                       # average number of cycles each access was blocked
system.cpu2.dcache.blocked::no_mshrs                0                       # number of cycles access was blocked
system.cpu2.dcache.blocked::no_targets              0                       # number of cycles access was blocked
system.cpu2.dcache.blocked_cycles::no_mshrs            0                       # number of cycles access was blocked
system.cpu2.dcache.blocked_cycles::no_targets            0                       # number of cycles access was blocked
system.cpu2.dcache.demand_accesses::.cpu2.data     18167068                       # number of demand (read+write) accesses
system.cpu2.dcache.demand_accesses::total     18167068                       # number of demand (read+write) accesses
system.cpu2.dcache.demand_avg_miss_latency::.cpu2.data 132528.015051                       # average overall miss latency
system.cpu2.dcache.demand_avg_miss_latency::total 132528.015051                       # average overall miss latency
system.cpu2.dcache.demand_avg_mshr_miss_latency::.cpu2.data 130528.015051                       # average overall mshr miss latency
system.cpu2.dcache.demand_avg_mshr_miss_latency::total 130528.015051                       # average overall mshr miss latency
system.cpu2.dcache.demand_hits::.cpu2.data     18101157                       # number of demand (read+write) hits
system.cpu2.dcache.demand_hits::total        18101157                       # number of demand (read+write) hits
system.cpu2.dcache.demand_miss_latency::.cpu2.data   8735054000                       # number of demand (read+write) miss cycles
system.cpu2.dcache.demand_miss_latency::total   8735054000                       # number of demand (read+write) miss cycles
system.cpu2.dcache.demand_miss_rate::.cpu2.data     0.003628                       # miss rate for demand accesses
system.cpu2.dcache.demand_miss_rate::total     0.003628                       # miss rate for demand accesses
system.cpu2.dcache.demand_misses::.cpu2.data        65911                       # number of demand (read+write) misses
system.cpu2.dcache.demand_misses::total         65911                       # number of demand (read+write) misses
system.cpu2.dcache.demand_mshr_miss_latency::.cpu2.data   8603232000                       # number of demand (read+write) MSHR miss cycles
system.cpu2.dcache.demand_mshr_miss_latency::total   8603232000                       # number of demand (read+write) MSHR miss cycles
system.cpu2.dcache.demand_mshr_miss_rate::.cpu2.data     0.003628                       # mshr miss rate for demand accesses
system.cpu2.dcache.demand_mshr_miss_rate::total     0.003628                       # mshr miss rate for demand accesses
system.cpu2.dcache.demand_mshr_misses::.cpu2.data        65911                       # number of demand (read+write) MSHR misses
system.cpu2.dcache.demand_mshr_misses::total        65911                       # number of demand (read+write) MSHR misses
system.cpu2.dcache.overall_accesses::.cpu2.data     18167068                       # number of overall (read+write) accesses
system.cpu2.dcache.overall_accesses::total     18167068                       # number of overall (read+write) accesses
system.cpu2.dcache.overall_avg_miss_latency::.cpu2.data 132528.015051                       # average overall miss latency
system.cpu2.dcache.overall_avg_miss_latency::total 132528.015051                       # average overall miss latency
system.cpu2.dcache.overall_avg_mshr_miss_latency::.cpu2.data 130528.015051                       # average overall mshr miss latency
system.cpu2.dcache.overall_avg_mshr_miss_latency::total 130528.015051                       # average overall mshr miss latency
system.cpu2.dcache.overall_hits::.cpu2.data     18101157                       # number of overall hits
system.cpu2.dcache.overall_hits::total       18101157                       # number of overall hits
system.cpu2.dcache.overall_miss_latency::.cpu2.data   8735054000                       # number of overall miss cycles
system.cpu2.dcache.overall_miss_latency::total   8735054000                       # number of overall miss cycles
system.cpu2.dcache.overall_miss_rate::.cpu2.data     0.003628                       # miss rate for overall accesses
system.cpu2.dcache.overall_miss_rate::total     0.003628                       # miss rate for overall accesses
system.cpu2.dcache.overall_misses::.cpu2.data        65911                       # number of overall misses
system.cpu2.dcache.overall_misses::total        65911                       # number of overall misses
system.cpu2.dcache.overall_mshr_miss_latency::.cpu2.data   8603232000                       # number of overall MSHR miss cycles
system.cpu2.dcache.overall_mshr_miss_latency::total   8603232000                       # number of overall MSHR miss cycles
system.cpu2.dcache.overall_mshr_miss_rate::.cpu2.data     0.003628                       # mshr miss rate for overall accesses
system.cpu2.dcache.overall_mshr_miss_rate::total     0.003628                       # mshr miss rate for overall accesses
system.cpu2.dcache.overall_mshr_misses::.cpu2.data        65911                       # number of overall MSHR misses
system.cpu2.dcache.overall_mshr_misses::total        65911                       # number of overall MSHR misses
system.cpu2.dcache.pwrStateResidencyTicks::UNDEFINED 185567876000                       # Cumulative time (in ticks) in various power states
system.cpu2.dcache.replacements                 64887                       # number of replacements
system.cpu2.dcache.tags.age_task_id_blocks_1024::0            1                       # Occupied blocks per task id
[...]
system.mem_ctrl.totQLat                   32539878396                       # Total ticks spent queuing
system.mem_ctrl.wrPerTurnAround::samples        52482                       # Writes before turning the bus around for reads
system.mem_ctrl.wrPerTurnAround::mean       17.624405                       # Writes before turning the bus around for reads
system.mem_ctrl.wrPerTurnAround::gmean      17.582214                       # Writes before turning the bus around for reads
system.mem_ctrl.wrPerTurnAround::stdev       1.229192                       # Writes before turning the bus around for reads
system.mem_ctrl.wrPerTurnAround::16             14342     27.33%     27.33% # Writes before turning the bus around for reads
system.mem_ctrl.wrPerTurnAround::17              3238      6.17%     33.50% # Writes before turning the bus around for reads
system.mem_ctrl.wrPerTurnAround::18             27313     52.04%     85.54% # Writes before turning the bus around for reads
system.mem_ctrl.wrPerTurnAround::19              4363      8.31%     93.85% # Writes before turning the bus around for reads
system.mem_ctrl.wrPerTurnAround::20              2413      4.60%     98.45% # Writes before turning the bus around for reads
system.mem_ctrl.wrPerTurnAround::21               474      0.90%     99.35% # Writes before turning the bus around for reads
system.mem_ctrl.wrPerTurnAround::22               179      0.34%     99.70% # Writes before turning the bus around for reads
system.mem_ctrl.wrPerTurnAround::23                94      0.18%     99.87% # Writes before turning the bus around for reads
system.mem_ctrl.wrPerTurnAround::24                49      0.09%     99.97% # Writes before turning the bus around for reads
system.mem_ctrl.wrPerTurnAround::25                17      0.03%    100.00% # Writes before turning the bus around for reads
system.mem_ctrl.wrPerTurnAround::total          52482                       # Writes before turning the bus around for reads
system.mem_ctrl.wrQLenPdf::0                        1                       # What write queue length does an incoming req see
system.mem_ctrl.wrQLenPdf::1                        1                       # What write queue length does an incoming req see
system.mem_ctrl.wrQLenPdf::2                        1                       # What write queue length does an incoming req see
system.mem_ctrl.wrQLenPdf::3                        1                       # What write queue length does an incoming req see
system.mem_ctrl.wrQLenPdf::4                        1                       # What write queue length does an incoming req see
system.mem_ctrl.wrQLenPdf::5                        1                       # What write queue length does an incoming req see
system.mem_ctrl.wrQLenPdf::6                        1                       # What write queue length does an incoming req see
system.mem_ctrl.wrQLenPdf::7                        1                       # What write queue length does an incoming req see
system.mem_ctrl.wrQLenPdf::8                        1                       # What write queue length does an incoming req see
system.mem_ctrl.wrQLenPdf::9                        1                       # What write queue length does an incoming req see
system.mem_ctrl.wrQLenPdf::10                       1                       # What write queue length does an incoming req see
system.mem_ctrl.wrQLenPdf::11                       1                       # What write queue length does an incoming req see
system.mem_ctrl.wrQLenPdf::12                       1                       # What write queue length does an incoming req see
system.mem_ctrl.wrQLenPdf::13                       1                       # What write queue length does an incoming req see
system.mem_ctrl.wrQLenPdf::14                       1                       # What write queue length does an incoming req see
system.mem_ctrl.wrQLenPdf::15                   33957                       # What write queue length does an incoming req see
system.mem_ctrl.wrQLenPdf::16                   37692                       # What write queue length does an incoming req see
system.mem_ctrl.wrQLenPdf::17                   48318                       # What write queue length does an incoming req see
system.mem_ctrl.wrQLenPdf::18                   51499                       # What write queue length does an incoming req see
system.mem_ctrl.wrQLenPdf::19                   52657                       # What write queue length does an incoming req see
system.mem_ctrl.wrQLenPdf::20                   53131                       # What write queue length does an incoming req see
system.mem_ctrl.wrQLenPdf::21                   53472                       # What write queue length does an incoming req see
system.mem_ctrl.wrQLenPdf::22                   53639                       # What write queue length does an incoming req see
system.mem_ctrl.wrQLenPdf::23                   53824                       # What write queue length does an incoming req see
system.mem_ctrl.wrQLenPdf::24                   53770                       # What write queue length does an incoming req see
system.mem_ctrl.wrQLenPdf::25                   53683                       # What write queue length does an incoming req see
system.mem_ctrl.wrQLenPdf::26                   54578                       # What write queue length does an incoming req see
system.mem_ctrl.wrQLenPdf::27                   53704                       # What write queue length does an incoming req see
system.mem_ctrl.wrQLenPdf::28                   53827                       # What write queue length does an incoming req see
system.mem_ctrl.wrQLenPdf::29                   58336                       # What write queue length does an incoming req see
system.mem_ctrl.wrQLenPdf::30                   53191                       # What write queue length does an incoming req see
system.mem_ctrl.wrQLenPdf::31                   52792                       # What write queue length does an incoming req see
system.mem_ctrl.wrQLenPdf::32                   52706                       # What write queue length does an incoming req see
system.mem_ctrl.wrQLenPdf::33                     154                       # What write queue length does an incoming req see
system.mem_ctrl.wrQLenPdf::34                      41                       # What write queue length does an incoming req see
system.mem_ctrl.wrQLenPdf::35                       2                       # What write queue length does an incoming req see
system.mem_ctrl.wrQLenPdf::36                       0                       # What write queue length does an incoming req see
system.mem_ctrl.wrQLenPdf::37                       0                       # What write queue length does an incoming req see
system.mem_ctrl.wrQLenPdf::38                       0                       # What write queue length does an incoming req see
system.mem_ctrl.wrQLenPdf::39                       0                       # What write queue length does an incoming req see
system.mem_ctrl.wrQLenPdf::40                       0                       # What write queue length does an incoming req see
system.mem_ctrl.wrQLenPdf::41                       0                       # What write queue length does an incoming req see
system.mem_ctrl.wrQLenPdf::42                       0                       # What write queue length does an incoming req see
system.mem_ctrl.wrQLenPdf::43                       0                       # What write queue length does an incoming req see
system.mem_ctrl.wrQLenPdf::44                       0                       # What write queue length does an incoming req see
system.mem_ctrl.wrQLenPdf::45                       0                       # What write queue length does an incoming req see
system.mem_ctrl.wrQLenPdf::46                       0                       # What write queue length does an incoming req see
system.mem_ctrl.wrQLenPdf::47                       0                       # What write queue length does an incoming req see
system.mem_ctrl.wrQLenPdf::48                       0                       # What write queue length does an incoming req see
system.mem_ctrl.wrQLenPdf::49                       0                       # What write queue length does an incoming req see
system.mem_ctrl.wrQLenPdf::50                       0                       # What write queue length does an incoming req see
system.mem_ctrl.wrQLenPdf::51                       0                       # What write queue length does an incoming req see
system.mem_ctrl.wrQLenPdf::52                       0                       # What write queue length does an incoming req see
system.mem_ctrl.wrQLenPdf::53                       0                       # What write queue length does an incoming req see
system.mem_ctrl.wrQLenPdf::54                       0                       # What write queue length does an incoming req see
system.mem_ctrl.wrQLenPdf::55                       0                       # What write queue length does an incoming req see
system.mem_ctrl.wrQLenPdf::56                       0                       # What write queue length does an incoming req see
system.mem_ctrl.wrQLenPdf::57                       0                       # What write queue length does an incoming req see
system.mem_ctrl.wrQLenPdf::58                       0                       # What write queue length does an incoming req see
system.mem_ctrl.wrQLenPdf::59                       0                       # What write queue length does an incoming req see
system.mem_ctrl.wrQLenPdf::60                       0                       # What write queue length does an incoming req see
system.mem_ctrl.wrQLenPdf::61                       0                       # What write queue length does an incoming req see
system.mem_ctrl.wrQLenPdf::62                       0                       # What write queue length does an incoming req see
system.mem_ctrl.wrQLenPdf::63                       0                       # What write queue length does an incoming req see
system.mem_ctrl.writeBursts                    924988                       # Number of DRAM write bursts, including those merged in the write queue
system.mem_ctrl.writePktSize::0                     0                       # Write request sizes (log2)
system.mem_ctrl.writePktSize::1                     0                       # Write request sizes (log2)
system.mem_ctrl.writePktSize::2                     0                       # Write request sizes (log2)
system.mem_ctrl.writePktSize::3                     0                       # Write request sizes (log2)
system.mem_ctrl.writePktSize::4                     0                       # Write request sizes (log2)
system.mem_ctrl.writePktSize::5                     0                       # Write request sizes (log2)
system.mem_ctrl.writePktSize::6                924988                       # Write request sizes (log2)
system.mem_ctrl.writeReqs                      924988                       # Number of write requests accepted
system.mem_ctrl.writeRowHitRate                 61.33                       # Row buffer hit rate for writes
system.mem_ctrl.writeRowHits                   567313                       # Number of row buffer hits during writes
system.mem_ctrl_0.actBackEnergy           78447285690                       # Energy for active background per rank (pJ)
system.mem_ctrl_0.actEnergy                4503726360                       # Energy for activate commands per rank (pJ)
system.mem_ctrl_0.actPowerDownEnergy                0                       # Energy for active power-down per rank (pJ)
system.mem_ctrl_0.averagePower             598.232261                       # Core power per rank (mW)
system.mem_ctrl_0.memoryStateTime::IDLE   11789635515                       # Time in different power states
system.mem_ctrl_0.memoryStateTime::REF     6196320000                       # Time in different power states
system.mem_ctrl_0.memoryStateTime::SREF             0                       # Time in different power states
system.mem_ctrl_0.memoryStateTime::PRE_PDN            0                       # Time in different power states
system.mem_ctrl_0.memoryStateTime::ACT   167581920485                       # Time in different power states
system.mem_ctrl_0.memoryStateTime::ACT_PDN            0                       # Time in different power states
system.mem_ctrl_0.preBackEnergy            5197192320                       # Energy for precharge background per rank (pJ)
system.mem_ctrl_0.preEnergy                2393775945                       # Energy for precharge commands per rank (pJ)
system.mem_ctrl_0.prePowerDownEnergy                0                       # Energy for precharge power-down per rank (pJ)
system.mem_ctrl_0.readEnergy               3409042980                       # Energy for read commands per rank (pJ)
system.mem_ctrl_0.refreshEnergy          14648100480.000002                       # Energy for refresh commands per rank (pJ)
system.mem_ctrl_0.selfRefreshEnergy                 0                       # Energy for self refresh per rank (pJ)
system.mem_ctrl_0.totalEnergy            111012689955                       # Total energy per rank (pJ)
system.mem_ctrl_0.totalIdleTime                     0                       # Total Idle time Per DRAM Rank
system.mem_ctrl_0.writeEnergy              2413566180                       # Energy for write commands per rank (pJ)
system.mem_ctrl_1.actBackEnergy           78839685660                       # Energy for active background per rank (pJ)
system.mem_ctrl_1.actEnergy                4533214560                       # Energy for activate commands per rank (pJ)
system.mem_ctrl_1.actPowerDownEnergy                0                       # Energy for active power-down per rank (pJ)
system.mem_ctrl_1.averagePower             598.977605                       # Core power per rank (mW)
system.mem_ctrl_1.memoryStateTime::IDLE   10954704022                       # Time in different power states
system.mem_ctrl_1.memoryStateTime::REF     6196320000                       # Time in different power states
system.mem_ctrl_1.memoryStateTime::SREF             0                       # Time in different power states
system.mem_ctrl_1.memoryStateTime::PRE_PDN            0                       # Time in different power states
system.mem_ctrl_1.memoryStateTime::ACT   168416851978                       # Time in different power states
system.mem_ctrl_1.memoryStateTime::ACT_PDN            0                       # Time in different power states
system.mem_ctrl_1.preBackEnergy            4866750240                       # Energy for precharge background per rank (pJ)
system.mem_ctrl_1.preEnergy                2409445500                       # Energy for precharge commands per rank (pJ)
system.mem_ctrl_1.prePowerDownEnergy                0                       # Energy for precharge power-down per rank (pJ)
system.mem_ctrl_1.readEnergy               3439059540                       # Energy for read commands per rank (pJ)
system.mem_ctrl_1.refreshEnergy          14648100480.000002                       # Energy for refresh commands per rank (pJ)
system.mem_ctrl_1.selfRefreshEnergy                 0                       # Energy for self refresh per rank (pJ)
system.mem_ctrl_1.totalEnergy            111151001880                       # Total energy per rank (pJ)
system.mem_ctrl_1.totalIdleTime                     0                       # Total Idle time Per DRAM Rank
system.mem_ctrl_1.writeEnergy              2414745900                       # Energy for write commands per rank (pJ)
system.membus.pkt_count_system.l2cache.mem_side::system.mem_ctrl.port      2865746                       # Packet count per connected master and slave (bytes)
system.membus.pkt_count_system.l2cache.mem_side::total      2865746                       # Packet count per connected master and slave (bytes)
system.membus.pkt_count::total                2865746                       # Packet count per connected master and slave (bytes)
system.membus.pkt_size_system.l2cache.mem_side::system.mem_ctrl.port    120583232                       # Cumulative packet size per connected master and slave (bytes)
system.membus.pkt_size_system.l2cache.mem_side::total    120583232                       # Cumulative packet size per connected master and slave (bytes)
system.membus.pkt_size::total               120583232                       # Cumulative packet size per connected master and slave (bytes)
system.membus.pwrStateResidencyTicks::UNDEFINED 185567876000                       # Cumulative time (in ticks) in various power states
system.membus.reqLayer8.occupancy          5621724833                       # Layer occupancy (ticks)
system.membus.reqLayer8.utilization               3.0                       # Layer utilization (%)
system.membus.respLayer0.occupancy         5434660628                       # Layer occupancy (ticks)
system.membus.respLayer0.utilization              2.9                       # Layer utilization (%)
system.membus.snoopTraffic                          0                       # Total snoop traffic (bytes)
system.membus.snoop_fanout::samples            959126                       # Request fanout histogram
system.membus.snoop_fanout::mean                    0                       # Request fanout histogram
system.membus.snoop_fanout::stdev                   0                       # Request fanout histogram
system.membus.snoop_fanout::underflows              0      0.00%      0.00% # Request fanout histogram
system.membus.snoop_fanout::0                  959126    100.00%    100.00% # Request fanout histogram
system.membus.snoop_fanout::1                       0      0.00%    100.00% # Request fanout histogram
system.membus.snoop_fanout::overflows               0      0.00%    100.00% # Request fanout histogram
system.membus.snoop_fanout::min_value               0                       # Request fanout histogram
system.membus.snoop_fanout::max_value               0                       # Request fanout histogram
system.membus.snoop_fanout::total              959126                       # Request fanout histogram
system.membus.snoop_filter.hit_multi_requests            0                       # Number of requests hitting in the snoop filter with multiple (>1) holders of the requested data.
system.membus.snoop_filter.hit_multi_snoops            0                       # Number of snoops hitting in the snoop filter with multiple (>1) holders of the requested data.
system.membus.snoop_filter.hit_single_requests       947495                       # Number of requests hitting in the snoop filter with a single holder of the requested data.
system.membus.snoop_filter.hit_single_snoops            0                       # Number of snoops hitting in the snoop filter with a single holder of the requested data.
system.membus.snoop_filter.tot_requests       1906621                       # Total number of requests made to the snoop filter.
system.membus.snoop_filter.tot_snoops               0                       # Total number of snoops made to the snoop filter.
system.membus.snoops                                0                       # Total snoops (count)
system.membus.trans_dist::ReadResp             802286                       # Transaction distribution
system.membus.trans_dist::WritebackDirty       924988                       # Transaction distribution
system.membus.trans_dist::CleanEvict            22507                       # Transaction distribution
system.membus.trans_dist::ReadExReq            156839                       # Transaction distribution
system.membus.trans_dist::ReadExResp           156839                       # Transaction distribution
system.membus.trans_dist::ReadSharedReq        802287                       # Transaction distribution

---------- End Simulation Statistics   ----------
