
---------- Begin Simulation Statistics ----------
final_tick                               184944982000                       # Number of ticks from beginning of simulation (restored from checkpoints and never reset)
host_inst_rate                                 429340                       # Simulator instruction rate (inst/s)
host_mem_usage                                 743448                       # Number of bytes of host memory used
host_op_rate                                   802146                       # Simulator op (including micro ops) rate (op/s)
host_seconds                                   465.72                       # Real time elapsed on the host
host_tick_rate                              397113765                       # Simulator tick rate (ticks/s)
sim_freq                                 1000000000000                       # Frequency of simulated ticks
sim_insts                                   199953429                       # Number of instructions simulated
sim_ops                                     373577741                       # Number of ops (including micro ops) simulated
sim_seconds                                  0.184945                       # Number of seconds simulated
sim_ticks                                184944982000                       # Number of ticks simulated
system.clk_domain.clock                          1000                       # Clock period in ticks
system.clk_domain.voltage_domain.voltage            1                       # Voltage in Volts
system.cpu0.Branches                         11270215                       # Number of branches fetched
system.cpu0.committedInsts                   49993648                       # Number of instructions committed
system.cpu0.committedOps                     93404423                       # Number of ops (including micro ops) committed
system.cpu0.dcache.ReadReq_accesses::.cpu0.data     10893691                       # number of ReadReq accesses(hits+misses)
system.cpu0.dcache.ReadReq_accesses::total     10893691                       # number of ReadReq accesses(hits+misses)
system.cpu0.dcache.ReadReq_avg_miss_latency::.cpu0.data 100896.070884                       # average ReadReq miss latency
system.cpu0.dcache.ReadReq_avg_miss_latency::total 100896.070884                       # average ReadReq miss latency
system.cpu0.dcache.ReadReq_avg_mshr_miss_latency::.cpu0.data 98896.070884                       # average ReadReq mshr miss latency
system.cpu0.dcache.ReadReq_avg_mshr_miss_latency::total 98896.070884                       # average ReadReq mshr miss latency
system.cpu0.dcache.ReadReq_hits::.cpu0.data     10879922                       # number of ReadReq hits
system.cpu0.dcache.ReadReq_hits::total       10879922                       # number of ReadReq hits
system.cpu0.dcache.ReadReq_miss_latency::.cpu0.data   1389238000                       # number of ReadReq miss cycles
system.cpu0.dcache.ReadReq_miss_latency::total   1389238000                       # number of ReadReq miss cycles
system.cpu0.dcache.ReadReq_miss_rate::.cpu0.data     0.001264                       # miss rate for ReadReq accesses
system.cpu0.dcache.ReadReq_miss_rate::total     0.001264                       # miss rate for ReadReq accesses
system.cpu0.dcache.ReadReq_misses::.cpu0.data        13769                       # number of ReadReq misses
system.cpu0.dcache.ReadReq_misses::total        13769                       # number of ReadReq misses
system.cpu0.dcache.ReadReq_mshr_miss_latency::.cpu0.data   1361700000                       # number of ReadReq MSHR miss cycles
system.cpu0.dcache.ReadReq_mshr_miss_latency::total   1361700000                       # number of ReadReq MSHR miss cycles
system.cpu0.dcache.ReadReq_mshr_miss_rate::.cpu0.data     0.001264                       # mshr miss rate for ReadReq accesses
system.cpu0.dcache.ReadReq_mshr_miss_rate::total     0.001264                       # mshr miss rate for ReadReq accesses
system.cpu0.dcache.ReadReq_mshr_misses::.cpu0.data        13769                       # number of ReadReq MSHR misses
system.cpu0.dcache.ReadReq_mshr_misses::total        13769                       # number of ReadReq MSHR misses
system.cpu0.dcache.WriteReq_accesses::.cpu0.data      7273384                       # number of WriteReq accesses(hits+misses)
system.cpu0.dcache.WriteReq_accesses::total      7273384                       # number of WriteReq accesses(hits+misses)
system.cpu0.dcache.WriteReq_avg_miss_latency::.cpu0.data 130556.984017                       # average WriteReq miss latency
system.cpu0.dcache.WriteReq_avg_miss_latency::total 130556.984017                       # average WriteReq miss latency
system.cpu0.dcache.WriteReq_avg_mshr_miss_latency::.cpu0.data 128556.984017                       # average WriteReq mshr miss latency
system.cpu0.dcache.WriteReq_avg_mshr_miss_latency::total 128556.984017                       # average WriteReq mshr miss latency
system.cpu0.dcache.WriteReq_hits::.cpu0.data      7221580                       # number of WriteReq hits
system.cpu0.dcache.WriteReq_hits::total       7221580                       # number of WriteReq hits
system.cpu0.dcache.WriteReq_miss_latency::.cpu0.data   6763374000                       # number of WriteReq miss cycles
system.cpu0.dcache.WriteReq_miss_latency::total   6763374000                       # number of WriteReq miss cycles
system.cpu0.dcache.WriteReq_miss_rate::.cpu0.data     0.007122                       # miss rate for WriteReq accesses
system.cpu0.dcache.WriteReq_miss_rate::total     0.007122                       # miss rate for WriteReq accesses
system.cpu0.dcache.WriteReq_misses::.cpu0.data        51804                       # number of WriteReq misses
system.cpu0.dcache.WriteReq_misses::total        51804                       # number of WriteReq misses
system.cpu0.dcache.WriteReq_mshr_miss_latency::.cpu0.data   6659766000                       # number of WriteReq MSHR miss cycles
system.cpu0.dcache.WriteReq_mshr_miss_latency::total   6659766000                       # number of WriteReq MSHR miss cycles
system.cpu0.dcache.WriteReq_mshr_miss_rate::.cpu0.data     0.007122                       # mshr miss rate for WriteReq accesses
system.cpu0.dcache.WriteReq_mshr_miss_rate::total     0.007122                       # mshr miss rate for WriteReq accesses
system.cpu0.dcache.WriteReq_mshr_misses::.cpu0.data        51804                       # number of WriteReq MSHR misses
system.cpu0.dcache.WriteReq_mshr_misses::total        51804                       # number of WriteReq MSHR misses
system.cpu0.dcache.avg_blocked_cycles::no_mshrs          nan                       # average number of cycles each access was blocked
system.cpu0.dcache.avg_blocked_cycles::no_targets          nan                       # average number of cycles each access was blocked
system.cpu0.dcache.blocked::no_mshrs                0                       # number of cycles access was blocked
system.cpu0.dcache.blocked::no_targets              0                       # number of cycles access was blocked
system.cpu0.dcache.blocked_cycles::no_mshrs            0                       # number of cycles access was blocked
system.cpu0.dcache.blocked_cycles::no_targets            0                       # number of cycles access was blocked
system.cpu0.dcache.demand_accesses::.cpu0.data     18167075                       # number of demand (read+write) accesses
system.cpu0.dcache.demand_accesses::total     18167075                       # number of demand (read+write) accesses
system.cpu0.dcache.demand_avg_miss_latency::.cpu0.data 124328.793863                       # average overall miss latency
system.cpu0.dcache.demand_avg_miss_latency::total 124328.793863                       # average overall miss latency
system.cpu0.dcache.demand_avg_mshr_miss_latency::.cpu0.data 122328.793863                       # average overall mshr miss latency
system.cpu0.dcache.demand_avg_mshr_miss_latency::total 122328.793863                       # average overall mshr miss latency
system.cpu0.dcache.demand_hits::.cpu0.data     18101502                       # number of demand (read+write) hits
system.cpu0.dcache.demand_hits::total        18101502                       # number of demand (read+write) hits
system.cpu0.dcache.demand_miss_latency::.cpu0.data   8152612000                       # number of demand (read+write) miss cycles
system.cpu0.dcache.demand_miss_latency::total   8152612000                       # number of demand (read+write) miss cycles
system.cpu0.dcache.demand_miss_rate::.cpu0.data     0.003609                       # miss rate for demand accesses
system.cpu0.dcache.demand_miss_rate::total     0.003609                       # miss rate for demand accesses
system.cpu0.dcache.demand_misses::.cpu0.data        65573                       # number of demand (read+write) misses
system.cpu0.dcache.demand_misses::total         65573                       # number of demand (read+write) misses
system.cpu0.dcache.demand_mshr_miss_latency::.cpu0.data   8021466000                       # number of demand (read+write) MSHR miss cycles
system.cpu0.dcache.demand_mshr_miss_latency::total   8021466000                       # number of demand (read+write) MSHR miss cycles
system.cpu0.dcache.demand_mshr_miss_rate::.cpu0.data     0.003609                       # mshr miss rate for demand accesses
system.cpu0.dcache.demand_mshr_miss_rate::total     0.003609                       # mshr miss rate for demand accesses
system.cpu0.dcache.demand_mshr_misses::.cpu0.data        65573                       # number of demand (read+write) MSHR misses
system.cpu0.dcache.demand_mshr_misses::total        65573                       # number of demand (read+write) MSHR misses
system.cpu0.dcache.overall_accesses::.cpu0.data     18167075                       # number of overall (read+write) accesses
system.cpu0.dcache.overall_accesses::total     18167075                       # number of overall (read+write) accesses
system.cpu0.dcache.overall_avg_miss_latency::.cpu0.data 124328.793863                       # average overall miss latency
system.cpu0.dcache.overall_avg_miss_latency::total 124328.793863                       # average overall miss latency
system.cpu0.dcache.overall_avg_mshr_miss_latency::.cpu0.data 122328.793863                       # average overall mshr miss latency
system.cpu0.dcache.overall_avg_mshr_miss_latency::total 122328.793863                       # average overall mshr miss latency
system.cpu0.dcache.overall_hits::.cpu0.data     18101502                       # number of overall hits
system.cpu0.dcache.overall_hits::total       18101502                       # number of overall hits
system.cpu0.dcache.overall_miss_latency::.cpu0.data   8152612000                       # number of overall miss cycles
system.cpu0.dcache.overall_miss_latency::total   8152612000                       # number of overall miss cycles
system.cpu0.dcache.overall_miss_rate::.cpu0.data     0.003609                       # miss rate for overall accesses
system.cpu0.dcache.overall_miss_rate::total     0.003609                       # miss rate for overall accesses
system.cpu0.dcache.overall_misses::.cpu0.data        65573                       # number of overall misses
system.cpu0.dcache.overall_misses::total        65573                       # number of overall misses
system.cpu0.dcache.overall_mshr_miss_latency::.cpu0.data   8021466000                       # number of overall MSHR miss cycles
system.cpu0.dcache.overall_mshr_miss_latency::total   8021466000                       # number of overall MSHR miss cycles
system.cpu0.dcache.overall_mshr_miss_rate::.cpu0.data     0.003609                       # mshr miss rate for overall accesses
system.cpu0.dcache.overall_mshr_miss_rate::total     0.003609                       # mshr miss rate for overall accesses
system.cpu0.dcache.overall_mshr_misses::.cpu0.data        65573                       # number of overall MSHR misses
system.cpu0.dcache.overall_mshr_misses::total        65573                       # number of overall MSHR misses
system.cpu0.dcache.pwrStateResidencyTicks::UNDEFINED 184944982000                       # Cumulative time (in ticks) in various power states
system.cpu0.dcache.replacements                 64549                       # number of replacements
system.cpu0.dcache.tags.age_task_id_blocks_1024::0            1                       # Occupied blocks per task id
system.cpu0.dcache.tags.age_task_id_blocks_1024::1           18                       # Occupied blocks per task id
system.cpu0.dcache.tags.age_task_id_blocks_1024::2          168                       # Occupied blocks per task id
system.cpu0.dcache.tags.age_task_id_blocks_1024::3          752                       # Occupied blocks per task id
system.cpu0.dcache.tags.age_task_id_blocks_1024::4           85                       # Occupied blocks per task id
system.cpu0.dcache.tags.avg_refs           277.051149                       # Average number of references to valid blocks.
system.cpu0.dcache.tags.data_accesses        36399723                       # Number of data accesses
system.cpu0.dcache.tags.occ_blocks::.cpu0.data  1020.653109                       # Average occupied blocks per requestor
system.cpu0.dcache.tags.occ_percent::.cpu0.data     0.996732                       # Average percentage of cache occupancy
system.cpu0.dcache.tags.occ_percent::total     0.996732                       # Average percentage of cache occupancy
system.cpu0.dcache.tags.occ_task_id_blocks::1024         1024                       # Occupied blocks per task id
system.cpu0.dcache.tags.occ_task_id_percent::1024            1                       # Percentage of cache occupancy per task id
system.cpu0.dcache.tags.pwrStateResidencyTicks::UNDEFINED 184944982000                       # Cumulative time (in ticks) in various power states
system.cpu0.dcache.tags.sampled_refs            65573                       # Sample count of references to valid blocks.
system.cpu0.dcache.tags.tag_accesses         36399723                       # Number of tag accesses
system.cpu0.dcache.tags.tagsinuse         1020.653109                       # Cycle average of tags in use
system.cpu0.dcache.tags.total_refs           18167075                       # Total number of references to valid blocks.
system.cpu0.dcache.tags.warmup_cycle           220000                       # Cycle when the warmup percentage was hit.
system.cpu0.dcache.writebacks::.writebacks        61440                       # number of writebacks
system.cpu0.dcache.writebacks::total            61440                       # number of writebacks
system.cpu0.dtb.rdAccesses                   10893691                       # TLB accesses on read requests
system.cpu0.dtb.rdMisses                         9190                       # TLB misses on read requests
system.cpu0.dtb.walker.pwrStateResidencyTicks::UNDEFINED 184944982000                       # Cumulative time (in ticks) in various power states
system.cpu0.dtb.wrAccesses                    7273384                       # TLB accesses on write requests
system.cpu0.dtb.wrMisses                          888                       # TLB misses on write requests
system.cpu0.icache.ReadReq_accesses::.cpu0.inst     67555641                       # number of ReadReq accesses(hits+misses)
system.cpu0.icache.ReadReq_accesses::total     67555641                       # number of ReadReq accesses(hits+misses)
system.cpu0.icache.ReadReq_avg_miss_latency::.cpu0.inst 26299.184232                       # average ReadReq miss latency
system.cpu0.icache.ReadReq_avg_miss_latency::total 26299.184232                       # average ReadReq miss latency
system.cpu0.icache.ReadReq_avg_mshr_miss_latency::.cpu0.inst 24299.184232                       # average ReadReq mshr miss latency
system.cpu0.icache.ReadReq_avg_mshr_miss_latency::total 24299.184232                       # average ReadReq mshr miss latency
system.cpu0.icache.ReadReq_hits::.cpu0.inst     67329964                       # number of ReadReq hits
system.cpu0.icache.ReadReq_hits::total       67329964                       # number of ReadReq hits
system.cpu0.icache.ReadReq_miss_latency::.cpu0.inst   5935121000                       # number of ReadReq miss cycles
system.cpu0.icache.ReadReq_miss_latency::total   5935121000                       # number of ReadReq miss cycles
system.cpu0.icache.ReadReq_miss_rate::.cpu0.inst     0.003341                       # miss rate for ReadReq accesses
system.cpu0.icache.ReadReq_miss_rate::total     0.003341                       # miss rate for ReadReq accesses
system.cpu0.icache.ReadReq_misses::.cpu0.inst       225677                       # number of ReadReq misses
system.cpu0.icache.ReadReq_misses::total       225677                       # number of ReadReq misses
system.cpu0.icache.ReadReq_mshr_miss_latency::.cpu0.inst   5483767000                       # number of ReadReq MSHR miss cycles
system.cpu0.icache.ReadReq_mshr_miss_latency::total   5483767000                       # number of ReadReq MSHR miss cycles
system.cpu0.icache.ReadReq_mshr_miss_rate::.cpu0.inst     0.003341                       # mshr miss rate for ReadReq accesses
system.cpu0.icache.ReadReq_mshr_miss_rate::total     0.003341                       # mshr miss rate for ReadReq accesses
system.cpu0.icache.ReadReq_mshr_misses::.cpu0.inst       225677                       # number of ReadReq MSHR misses
system.cpu0.icache.ReadReq_mshr_misses::total       225677                       # number of ReadReq MSHR misses
system.cpu0.icache.avg_blocked_cycles::no_mshrs          nan                       # average number of cycles each access was blocked
system.cpu0.icache.avg_blocked_cycles::no_targets          nan                       # average number of cycles each access was blocked
system.cpu0.icache.blocked::no_mshrs                0                       # number of cycles access was blocked
system.cpu0.icache.blocked::no_targets              0                       # number of cycles access was blocked
system.cpu0.icache.blocked_cycles::no_mshrs            0                       # number of cycles access was blocked
system.cpu0.icache.blocked_cycles::no_targets            0                       # number of cycles access was blocked
system.cpu0.icache.demand_accesses::.cpu0.inst     67555641                       # number of demand (read+write) accesses
system.cpu0.icache.demand_accesses::total     67555641                       # number of demand (read+write) accesses
system.cpu0.icache.demand_avg_miss_latency::.cpu0.inst 26299.184232                       # average overall miss latency
system.cpu0.icache.demand_avg_miss_latency::total 26299.184232                       # average overall miss latency
system.cpu0.icache.demand_avg_mshr_miss_latency::.cpu0.inst 24299.184232                       # average overall mshr miss latency
system.cpu0.icache.demand_avg_mshr_miss_latency::total 24299.184232                       # average overall mshr miss latency
system.cpu0.icache.demand_hits::.cpu0.inst     67329964                       # number of demand (read+write) hits
system.cpu0.icache.demand_hits::total        67329964                       # number of demand (read+write) hits
system.cpu0.icache.demand_miss_latency::.cpu0.inst   5935121000                       # number of demand (read+write) miss cycles
system.cpu0.icache.demand_miss_latency::total   5935121000                       # number of demand (read+write) miss cycles
system.cpu0.icache.demand_miss_rate::.cpu0.inst     0.003341                       # miss rate for demand accesses
system.cpu0.icache.demand_miss_rate::total     0.003341                       # miss rate for demand accesses
system.cpu0.icache.demand_misses::.cpu0.inst       225677                       # number of demand (read+write) misses
system.cpu0.icache.demand_misses::total        225677                       # number of demand (read+write) misses
system.cpu0.icache.demand_mshr_miss_latency::.cpu0.inst   5483767000                       # number of demand (read+write) MSHR miss cycles
system.cpu0.icache.demand_mshr_miss_latency::total   5483767000                       # number of demand (read+write) MSHR miss cycles
system.cpu0.icache.demand_mshr_miss_rate::.cpu0.inst     0.003341                       # mshr miss rate for demand accesses
system.cpu0.icache.demand_mshr_miss_rate::total     0.003341                       # mshr miss rate for demand accesses
system.cpu0.icache.demand_mshr_misses::.cpu0.inst       225677                       # number of demand (read+write) MSHR misses
system.cpu0.icache.demand_mshr_misses::total       225677                       # number of demand (read+write) MSHR misses
system.cpu0.icache.overall_accesses::.cpu0.inst     67555641                       # number of overall (read+write) accesses
system.cpu0.icache.overall_accesses::total     67555641                       # number of overall (read+write) accesses
system.cpu0.icache.overall_avg_miss_latency::.cpu0.inst 26299.184232                       # average overall miss latency
system.cpu0.icache.overall_avg_miss_latency::total 26299.184232                       # average overall miss latency
system.cpu0.icache.overall_avg_mshr_miss_latency::.cpu0.inst 24299.184232                       # average overall mshr miss latency
system.cpu0.icache.overall_avg_mshr_miss_latency::total 24299.184232                       # average overall mshr miss latency
system.cpu0.icache.overall_hits::.cpu0.inst     67329964                       # number of overall hits
system.cpu0.icache.overall_hits::total       67329964                       # number of overall hits
system.cpu0.icache.overall_miss_latency::.cpu0.inst   5935121000                       # number of overall miss cycles
system.cpu0.icache.overall_miss_latency::total   5935121000                       # number of overall miss cycles
system.cpu0.icache.overall_miss_rate::.cpu0.inst     0.003341                       # miss rate for overall accesses
system.cpu0.icache.overall_miss_rate::total     0.003341                       # miss rate for overall accesses
system.cpu0.icache.overall_misses::.cpu0.inst       225677                       # number of overall misses
system.cpu0.icache.overall_misses::total       225677                       # number of overall misses
system.cpu0.icache.overall_mshr_miss_latency::.cpu0.inst   5483767000                       # number of overall MSHR miss cycles
system.cpu0.icache.overall_mshr_miss_latency::total   5483767000                       # number of overall MSHR miss cycles
system.cpu0.icache.overall_mshr_miss_rate::.cpu0.inst     0.003341                       # mshr miss rate for overall accesses
system.cpu0.icache.overall_mshr_miss_rate::total     0.003341                       # mshr miss rate for overall accesses
system.cpu0.icache.overall_mshr_misses::.cpu0.inst       225677                       # number of overall MSHR misses
system.cpu0.icache.overall_mshr_misses::total       225677                       # number of overall MSHR misses
system.cpu0.icache.pwrStateResidencyTicks::UNDEFINED 184944982000                       # Cumulative time (in ticks) in various power states
system.cpu0.icache.replacements                225424                       # number of replacements
system.cpu0.icache.tags.age_task_id_blocks_1024::0            6                       # Occupied blocks per task id
system.cpu0.icache.tags.age_task_id_blocks_1024::3           10                       # Occupied blocks per task id
system.cpu0.icache.tags.age_task_id_blocks_1024::4          237                       # Occupied blocks per task id
system.cpu0.icache.tags.avg_refs           299.346593                       # Average number of references to valid blocks.
system.cpu0.icache.tags.data_accesses       135336959                       # Number of data accesses
system.cpu0.icache.tags.occ_blocks::.cpu0.inst   252.703258                       # Average occupied blocks per requestor
system.cpu0.icache.tags.occ_percent::.cpu0.inst     0.987122                       # Average percentage of cache occupancy
system.cpu0.icache.tags.occ_percent::total     0.987122                       # Average percentage of cache occupancy
system.cpu0.icache.tags.occ_task_id_blocks::1024          253                       # Occupied blocks per task id
system.cpu0.icache.tags.occ_task_id_percent::1024     0.988281                       # Percentage of cache occupancy per task id
system.cpu0.icache.tags.pwrStateResidencyTicks::UNDEFINED 184944982000                       # Cumulative time (in ticks) in various power states
system.cpu0.icache.tags.sampled_refs           225677                       # Sample count of references to valid blocks.
system.cpu0.icache.tags.tag_accesses        135336959                       # Number of tag accesses
system.cpu0.icache.tags.tagsinuse          252.703258                       # Cycle average of tags in use
system.cpu0.icache.tags.total_refs           67555641                       # Total number of references to valid blocks.
system.cpu0.icache.tags.warmup_cycle           107000                       # Cycle when the warmup percentage was hit.
system.cpu0.idle_fraction                           0                       # Percentage of idle cycles
system.cpu0.interrupts.clk_domain.clock         16000                       # Clock period in ticks
system.cpu0.interrupts.pwrStateResidencyTicks::UNDEFINED 184944982000                       # Cumulative time (in ticks) in various power states
system.cpu0.itb.rdAccesses                          0                       # TLB accesses on read requests
system.cpu0.itb.rdMisses                            0                       # TLB misses on read requests
system.cpu0.itb.walker.pwrStateResidencyTicks::UNDEFINED 184944982000                       # Cumulative time (in ticks) in various power states
system.cpu0.itb.wrAccesses                   67555641                       # TLB accesses on write requests
system.cpu0.itb.wrMisses                           49                       # TLB misses on write requests
system.cpu0.not_idle_fraction                       1                       # Percentage of non-idle cycles
system.cpu0.numCycles                       184944982                       # number of cpu cycles simulated
system.cpu0.numWorkItemsCompleted                   0                       # number of work items this cpu completed
system.cpu0.numWorkItemsStarted                     0                       # number of work items this cpu started
system.cpu0.num_busy_cycles                 184944982                       # Number of busy cycles
system.cpu0.num_cc_register_reads            57992221                       # number of times the CC registers were read
system.cpu0.num_cc_register_writes           29707411                       # number of times the CC registers were written
system.cpu0.num_conditional_control_insts      9156250                       # number of instructions that are conditional controls
system.cpu0.num_fp_alu_accesses               1222281                       # Number of float alu accesses
system.cpu0.num_fp_insts                      1222281                       # number of float instructions
system.cpu0.num_fp_register_reads             1373646                       # number of times the floating registers were read
system.cpu0.num_fp_register_writes             922688                       # number of times the floating registers were written
system.cpu0.num_func_calls                     950702                       # number of times a function call or return occured
system.cpu0.num_idle_cycles                         0                       # Number of idle cycles
system.cpu0.num_int_alu_accesses             92659359                       # Number of integer alu accesses
system.cpu0.num_int_insts                    92659359                       # number of integer instructions
system.cpu0.num_int_register_reads          179356864                       # number of times the integer registers were read
system.cpu0.num_int_register_writes          74040060                       # number of times the integer registers were written
system.cpu0.num_load_insts                   10888015                       # Number of load instructions
system.cpu0.num_mem_refs                     18161396                       # number of memory refs
system.cpu0.num_store_insts                   7273381                       # Number of store instructions
system.cpu0.num_vec_alu_accesses                    0                       # Number of vector alu accesses
system.cpu0.num_vec_insts                           0                       # number of vector instructions
system.cpu0.num_vec_register_reads                  0                       # number of times the vector registers were read
system.cpu0.num_vec_register_writes                 0                       # number of times the vector registers were written
system.cpu0.op_class::No_OpClass               166629      0.18%      0.18% # Class of executed instruction
system.cpu0.op_class::IntAlu                 74168938     79.41%     79.58% # Class of executed instruction
system.cpu0.op_class::IntMult                  223357      0.24%     79.82% # Class of executed instruction
system.cpu0.op_class::IntDiv                       21      0.00%     79.82% # Class of executed instruction
system.cpu0.op_class::FloatAdd                 117279      0.13%     79.95% # Class of executed instruction
system.cpu0.op_class::FloatCmp                      0      0.00%     79.95% # Class of executed instruction
system.cpu0.op_class::FloatCvt                      0      0.00%     79.95% # Class of executed instruction
system.cpu0.op_class::FloatMult                     0      0.00%     79.95% # Class of executed instruction
system.cpu0.op_class::FloatMultAcc                  0      0.00%     79.95% # Class of executed instruction
system.cpu0.op_class::FloatDiv                      0      0.00%     79.95% # Class of executed instruction
system.cpu0.op_class::FloatMisc                     0      0.00%     79.95% # Class of executed instruction
system.cpu0.op_class::FloatSqrt                     0      0.00%     79.95% # Class of executed instruction
system.cpu0.op_class::SimdAdd                     374      0.00%     79.95% # Class of executed instruction
system.cpu0.op_class::SimdAddAcc                    0      0.00%     79.95% # Class of executed instruction
system.cpu0.op_class::SimdAlu                     100      0.00%     79.95% # Class of executed instruction
system.cpu0.op_class::SimdCmp                       0      0.00%     79.95% # Class of executed instruction
system.cpu0.op_class::SimdCvt                  110388      0.12%     80.07% # Class of executed instruction
system.cpu0.op_class::SimdMisc                 455755      0.49%     80.56% # Class of executed instruction
system.cpu0.op_class::SimdMult                      0      0.00%     80.56% # Class of executed instruction
system.cpu0.op_class::SimdMultAcc                   0      0.00%     80.56% # Class of executed instruction
system.cpu0.op_class::SimdShift                   186      0.00%     80.56% # Class of executed instruction
system.cpu0.op_class::SimdShiftAcc                  0      0.00%     80.56% # Class of executed instruction
system.cpu0.op_class::SimdDiv                       0      0.00%     80.56% # Class of executed instruction
system.cpu0.op_class::SimdSqrt                      0      0.00%     80.56% # Class of executed instruction
system.cpu0.op_class::SimdFloatAdd                  0      0.00%     80.56% # Class of executed instruction
system.cpu0.op_class::SimdFloatAlu                  0      0.00%     80.56% # Class of executed instruction
system.cpu0.op_class::SimdFloatCmp                  0      0.00%     80.56% # Class of executed instruction
system.cpu0.op_class::SimdFloatCvt                  0      0.00%     80.56% # Class of executed instruction
system.cpu0.op_class::SimdFloatDiv                  0      0.00%     80.56% # Class of executed instruction
system.cpu0.op_class::SimdFloatMisc                 0      0.00%     80.56% # Class of executed instruction
system.cpu0.op_class::SimdFloatMult                 0      0.00%     80.56% # Class of executed instruction
system.cpu0.op_class::SimdFloatMultAcc              0      0.00%     80.56% # Class of executed instruction
system.cpu0.op_class::SimdFloatSqrt                 0      0.00%     80.56% # Class of executed instruction
system.cpu0.op_class::SimdReduceAdd                 0      0.00%     80.56% # Class of executed instruction
system.cpu0.op_class::SimdReduceAlu                 0      0.00%     80.56% # Class of executed instruction
system.cpu0.op_class::SimdReduceCmp                 0      0.00%     80.56% # Class of executed instruction
system.cpu0.op_class::SimdFloatReduceAdd            0      0.00%     80.56% # Class of executed instruction
system.cpu0.op_class::SimdFloatReduceCmp            0      0.00%     80.56% # Class of executed instruction
system.cpu0.op_class::SimdAes                       0      0.00%     80.56% # Class of executed instruction
system.cpu0.op_class::SimdAesMix                    0      0.00%     80.56% # Class of executed instruction
system.cpu0.op_class::SimdSha1Hash                  0      0.00%     80.56% # Class of executed instruction
system.cpu0.op_class::SimdSha1Hash2                 0      0.00%     80.56% # Class of executed instruction
system.cpu0.op_class::SimdSha256Hash                0      0.00%     80.56% # Class of executed instruction
system.cpu0.op_class::SimdSha256Hash2               0      0.00%     80.56% # Class of executed instruction
system.cpu0.op_class::SimdShaSigma2                 0      0.00%     80.56% # Class of executed instruction
system.cpu0.op_class::SimdShaSigma3                 0      0.00%     80.56% # Class of executed instruction
system.cpu0.op_class::SimdPredAlu                   0      0.00%     80.56% # Class of executed instruction
system.cpu0.op_class::MemRead                10588916     11.34%     91.89% # Class of executed instruction
system.cpu0.op_class::MemWrite                7084116      7.58%     99.48% # Class of executed instruction
system.cpu0.op_class::FloatMemRead             299099      0.32%     99.80% # Class of executed instruction
system.cpu0.op_class::FloatMemWrite            189265      0.20%    100.00% # Class of executed instruction
system.cpu0.op_class::IprAccess                     0      0.00%    100.00% # Class of executed instruction
system.cpu0.op_class::InstPrefetch                  0      0.00%    100.00% # Class of executed instruction
system.cpu0.op_class::total                  93404423                       # Class of executed instruction
system.cpu0.pwrStateResidencyTicks::ON   184944982000                       # Cumulative time (in ticks) in various power states
system.cpu0.workload.numSyscalls                   56                       # Number of system calls
system.cpu1.Branches                         11271693                       # Number of branches fetched
system.cpu1.committedInsts                   50000000                       # Number of instructions committed
system.cpu1.committedOps                     93416416                       # Number of ops (including micro ops) committed
system.cpu1.dcache.ReadReq_accesses::.cpu1.data     10895037                       # number of ReadReq accesses(hits+misses)
system.cpu1.dcache.ReadReq_accesses::total     10895037                       # number of ReadReq accesses(hits+misses)
system.cpu1.dcache.ReadReq_avg_miss_latency::.cpu1.data 100593.722755                       # average ReadReq miss latency
system.cpu1.dcache.ReadReq_avg_miss_latency::total 100593.722755                       # average ReadReq miss latency
system.cpu1.dcache.ReadReq_avg_mshr_miss_latency::.cpu1.data 98593.722755                       # average ReadReq mshr miss latency
system.cpu1.dcache.ReadReq_avg_mshr_miss_latency::total 98593.722755                       # average ReadReq mshr miss latency
system.cpu1.dcache.ReadReq_hits::.cpu1.data     10881273                       # number of ReadReq hits
system.cpu1.dcache.ReadReq_hits::total       10881273                       # number of ReadReq hits
system.cpu1.dcache.ReadReq_miss_latency::.cpu1.data   1384572000                       # number of ReadReq miss cycles
system.cpu1.dcache.ReadReq_miss_latency::total   1384572000                       # number of ReadReq miss cycles
system.cpu1.dcache.ReadReq_miss_rate::.cpu1.data     0.001263                       # miss rate for ReadReq accesses
system.cpu1.dcache.ReadReq_miss_rate::total     0.001263                       # miss rate for ReadReq accesses
system.cpu1.dcache.ReadReq_misses::.cpu1.data        13764                       # number of ReadReq misses
system.cpu1.dcache.ReadReq_misses::total        13764                       # number of ReadReq misses
system.cpu1.dcache.ReadReq_mshr_miss_latency::.cpu1.data   1357044000                       # number of ReadReq MSHR miss cycles
system.cpu1.dcache.ReadReq_mshr_miss_latency::total   1357044000                       # number of ReadReq MSHR miss cycles
system.cpu1.dcache.ReadReq_mshr_miss_rate::.cpu1.data     0.001263                       # mshr miss rate for ReadReq accesses
system.cpu1.dcache.ReadReq_mshr_miss_rate::total     0.001263                       # mshr miss rate for ReadReq accesses
system.cpu1.dcache.ReadReq_mshr_misses::.cpu1.data        13764                       # number of ReadReq MSHR misses
system.cpu1.dcache.ReadReq_mshr_misses::total        13764                       # number of ReadReq MSHR misses
system.cpu1.dcache.WriteReq_accesses::.cpu1.data      7274294                       # number of WriteReq accesses(hits+misses)
system.cpu1.dcache.WriteReq_accesses::total      7274294                       # number of WriteReq accesses(hits+misses)
system.cpu1.dcache.WriteReq_avg_miss_latency::.cpu1.data 130143.251433                       # average WriteReq miss latency
system.cpu1.dcache.WriteReq_avg_miss_latency::total 130143.251433                       # average WriteReq miss latency
system.cpu1.dcache.WriteReq_avg_mshr_miss_latency::.cpu1.data 128143.251433                       # average WriteReq mshr miss latency
system.cpu1.dcache.WriteReq_avg_mshr_miss_latency::total 128143.251433                       # average WriteReq mshr miss latency
system.cpu1.dcache.WriteReq_hits::.cpu1.data      7222483                       # number of WriteReq hits
system.cpu1.dcache.WriteReq_hits::total       7222483                       # number of WriteReq hits
system.cpu1.dcache.WriteReq_miss_latency::.cpu1.data   6742852000                       # number of WriteReq miss cycles
system.cpu1.dcache.WriteReq_miss_latency::total   6742852000                       # number of WriteReq miss cycles
system.cpu1.dcache.WriteReq_miss_rate::.cpu1.data     0.007122                       # miss rate for WriteReq accesses
system.cpu1.dcache.WriteReq_miss_rate::total     0.007122                       # miss rate for WriteReq accesses
system.cpu1.dcache.WriteReq_misses::.cpu1.data        51811                       # number of WriteReq misses
system.cpu1.dcache.WriteReq_misses::total        51811                       # number of WriteReq misses
system.cpu1.dcache.WriteReq_mshr_miss_latency::.cpu1.data   6639230000                       # number of WriteReq MSHR miss cycles
system.cpu1.dcache.WriteReq_mshr_miss_latency::total   6639230000                       # number of WriteReq MSHR miss cycles
system.cpu1.dcache.WriteReq_mshr_miss_rate::.cpu1.data     0.007122                       # mshr miss rate for WriteReq accesses
system.cpu1.dcache.WriteReq_mshr_miss_rate::total     0.007122                       # mshr miss rate for WriteReq accesses
system.cpu1.dcache.WriteReq_mshr_misses::.cpu1.data        51811                       # number of WriteReq MSHR misses
system.cpu1.dcache.WriteReq_mshr_misses::total        51811                       # number of WriteReq MSHR misses
system.cpu1.dcache.avg_blocked_cycles::no_mshrs          nan                       # average number of cycles each access was blocked
system.cpu1.dcache.avg_blocked_cycles::no_targets          nan                       # average number of cycles each access was blocked
system.cpu1.dcache.blocked::no_mshrs                0                       # number of cycles access was blocked
system.cpu1.dcache.blocked::no_targets              0                       # number of cycles access was blocked
system.cpu1.dcache.blocked_cycles::no_mshrs            0                       # number of cycles access was blocked
system.cpu1.dcache.blocked_cycles::no_targets            0                       # number of cycles access was blocked
system.cpu1.dcache.demand_accesses::.cpu1.data     18169331                       # number of demand (read+write) accesses
system.cpu1.dcache.demand_accesses::total     18169331                       # number of demand (read+write) accesses
system.cpu1.dcache.demand_avg_miss_latency::.cpu1.data 123940.892108                       # average overall miss latency
system.cpu1.dcache.demand_avg_miss_latency::total 123940.892108                       # average overall miss latency
system.cpu1.dcache.demand_avg_mshr_miss_latency::.cpu1.data 121940.892108                       # average overall mshr miss latency
system.cpu1.dcache.demand_avg_mshr_miss_latency::total 121940.892108                       # average overall mshr miss latency
system.cpu1.dcache.demand_hits::.cpu1.data     18103756                       # number of demand (read+write) hits
system.cpu1.dcache.demand_hits::total        18103756                       # number of demand (read+write) hits
system.cpu1.dcache.demand_miss_latency::.cpu1.data   8127424000                       # number of demand (read+write) miss cycles
system.cpu1.dcache.demand_miss_latency::total   8127424000                       # number of demand (read+write) miss cycles
system.cpu1.dcache.demand_miss_rate::.cpu1.data     0.003609                       # miss rate for demand accesses
system.cpu1.dcache.demand_miss_rate::total     0.003609                       # miss rate for demand accesses
system.cpu1.dcache.demand_misses::.cpu1.data        65575                       # number of demand (read+write) misses
system.cpu1.dcache.demand_misses::total         65575                       # number of demand (read+write) misses
system.cpu1.dcache.demand_mshr_miss_latency::.cpu1.data   7996274000                       # number of demand (read+write) MSHR miss cycles
system.cpu1.dcache.demand_mshr_miss_latency::total   7996274000                       # number of demand (read+write) MSHR miss cycles
system.cpu1.dcache.demand_mshr_miss_rate::.cpu1.data     0.003609                       # mshr miss rate for demand accesses
system.cpu1.dcache.demand_mshr_miss_rate::total     0.003609                       # mshr miss rate for demand accesses
system.cpu1.dcache.demand_mshr_misses::.cpu1.data        65575                       # number of demand (read+write) MSHR misses
system.cpu1.dcache.demand_mshr_misses::total        65575                       # number of demand (read+write) MSHR misses
system.cpu1.dcache.overall_accesses::.cpu1.data     18169331                       # number of overall (read+write) accesses
system.cpu1.dcache.overall_accesses::total     18169331                       # number of overall (read+write) accesses
system.cpu1.dcache.overall_avg_miss_latency::.cpu1.data 123940.892108                       # average overall miss latency
system.cpu1.dcache.overall_avg_miss_latency::total 123940.892108                       # average overall miss latency
system.cpu1.dcache.overall_avg_mshr_miss_latency::.cpu1.data 121940.892108                       # average overall mshr miss latency
system.cpu1.dcache.overall_avg_mshr_miss_latency::total 121940.892108                       # average overall mshr miss latency
system.cpu1.dcache.overall_hits::.cpu1.data     18103756                       # number of overall hits
system.cpu1.dcache.overall_hits::total       18103756                       # number of overall hits
system.cpu1.dcache.overall_miss_latency::.cpu1.data   8127424000                       # number of overall miss cycles
system.cpu1.dcache.overall_miss_latency::total   8127424000                       # number of overall miss cycles
system.cpu1.dcache.overall_miss_rate::.cpu1.data     0.003609                       # miss rate for overall accesses
system.cpu1.dcache.overall_miss_rate::total     0.003609                       # miss rate for overall accesses
system.cpu1.dcache.overall_misses::.cpu1.data        65575                       # number of overall misses
system.cpu1.dcache.overall_misses::total        65575                       # number of overall misses
system.cpu1.dcache.overall_mshr_miss_latency::.cpu1.data   7996274000                       # number of overall MSHR miss cycles
system.cpu1.dcache.overall_mshr_miss_latency::total   7996274000                       # number of overall MSHR miss cycles
system.cpu1.dcache.overall_mshr_miss_rate::.cpu1.data     0.003609                       # mshr miss rate for overall accesses
system.cpu1.dcache.overall_mshr_miss_rate::total     0.003609                       # mshr miss rate for overall accesses
system.cpu1.dcache.overall_mshr_misses::.cpu1.data        65575                       # number of overall MSHR misses
system.cpu1.dcache.overall_mshr_misses::total        65575                       # number of overall MSHR misses
system.cpu1.dcache.pwrStateResidencyTicks::UNDEFINED 184944982000                       # Cumulative time (in ticks) in various power states
system.cpu1.dcache.replacements                 64551                       # number of replacements
system.cpu1.dcache.tags.age_task_id_blocks_1024::0            1                       # Occupied blocks per task id
system.cpu1.dcache.tags.age_task_id_blocks_1024::1           18                       # Occupied blocks per task id
system.cpu1.dcache.tags.age_task_id_blocks_1024::2          161                       # Occupied blocks per task id
system.cpu1.dcache.tags.age_task_id_blocks_1024::3          775                       # Occupied blocks per task id
system.cpu1.dcache.tags.age_task_id_blocks_1024::4           69                       # Occupied blocks per task id
system.cpu1.dcache.tags.avg_refs           277.077103                       # Average number of references to valid blocks.
system.cpu1.dcache.tags.data_accesses        36404237                       # Number of data accesses
system.cpu1.dcache.tags.occ_blocks::.cpu1.data  1020.318210                       # Average occupied blocks per requestor
system.cpu1.dcache.tags.occ_percent::.cpu1.data     0.996405                       # Average percentage of cache occupancy
system.cpu1.dcache.tags.occ_percent::total     0.996405                       # Average percentage of cache occupancy
system.cpu1.dcache.tags.occ_task_id_blocks::1024         1024                       # Occupied blocks per task id
system.cpu1.dcache.tags.occ_task_id_percent::1024            1                       # Percentage of cache occupancy per task id
system.cpu1.dcache.tags.pwrStateResidencyTicks::UNDEFINED 184944982000                       # Cumulative time (in ticks) in various power states
system.cpu1.dcache.tags.sampled_refs            65575                       # Sample count of references to valid blocks.
system.cpu1.dcache.tags.tag_accesses         36404237                       # Number of tag accesses
system.cpu1.dcache.tags.tagsinuse         1020.318210                       # Cycle average of tags in use
system.cpu1.dcache.tags.total_refs           18169331                       # Total number of references to valid blocks.
system.cpu1.dcache.tags.warmup_cycle           283000                       # Cycle when the warmup percentage was hit.
system.cpu1.dcache.writebacks::.writebacks        61409                       # number of writebacks
system.cpu1.dcache.writebacks::total            61409                       # number of writebacks
system.cpu1.dtb.rdAccesses                   10895037                       # TLB accesses on read requests
system.cpu1.dtb.rdMisses                         9193                       # TLB misses on read requests
system.cpu1.dtb.walker.pwrStateResidencyTicks::UNDEFINED 184944982000                       # Cumulative time (in ticks) in various power states
system.cpu1.dtb.wrAccesses                    7274294                       # TLB accesses on write requests
system.cpu1.dtb.wrMisses                          888                       # TLB misses on write requests
system.cpu1.icache.ReadReq_accesses::.cpu1.inst     67564204                       # number of ReadReq accesses(hits+misses)
system.cpu1.icache.ReadReq_accesses::total     67564204                       # number of ReadReq accesses(hits+misses)
system.cpu1.icache.ReadReq_avg_miss_latency::.cpu1.inst 26312.028143                       # average ReadReq miss latency
system.cpu1.icache.ReadReq_avg_miss_latency::total 26312.028143                       # average ReadReq miss latency
system.cpu1.icache.ReadReq_avg_mshr_miss_latency::.cpu1.inst 24312.028143                       # average ReadReq mshr miss latency
system.cpu1.icache.ReadReq_avg_mshr_miss_latency::total 24312.028143                       # average ReadReq mshr miss latency
system.cpu1.icache.ReadReq_hits::.cpu1.inst     67338500                       # number of ReadReq hits
system.cpu1.icache.ReadReq_hits::total       67338500                       # number of ReadReq hits
system.cpu1.icache.ReadReq_miss_latency::.cpu1.inst   5938730000                       # number of ReadReq miss cycles
system.cpu1.icache.ReadReq_miss_latency::total   5938730000                       # number of ReadReq miss cycles
system.cpu1.icache.ReadReq_miss_rate::.cpu1.inst     0.003341                       # miss rate for ReadReq accesses
system.cpu1.icache.ReadReq_miss_rate::total     0.003341                       # miss rate for ReadReq accesses
system.cpu1.icache.ReadReq_misses::.cpu1.inst       225704                       # number of ReadReq misses
system.cpu1.icache.ReadReq_misses::total       225704                       # number of ReadReq misses
system.cpu1.icache.ReadReq_mshr_miss_latency::.cpu1.inst   5487322000                       # number of ReadReq MSHR miss cycles
system.cpu1.icache.ReadReq_mshr_miss_latency::total   5487322000                       # number of ReadReq MSHR miss cycles
system.cpu1.icache.ReadReq_mshr_miss_rate::.cpu1.inst     0.003341                       # mshr miss rate for ReadReq accesses
system.cpu1.icache.ReadReq_mshr_miss_rate::total     0.003341                       # mshr miss rate for ReadReq accesses
system.cpu1.icache.ReadReq_mshr_misses::.cpu1.inst       225704                       # number of ReadReq MSHR misses
system.cpu1.icache.ReadReq_mshr_misses::total       225704                       # number of ReadReq MSHR misses
system.cpu1.icache.avg_blocked_cycles::no_mshrs          nan                       # average number of cycles each access was blocked
system.cpu1.icache.avg_blocked_cycles::no_targets          nan                       # average number of cycles each access was blocked
system.cpu1.icache.blocked::no_mshrs                0                       # number of cycles access was blocked
system.cpu1.icache.blocked::no_targets              0                       # number of cycles access was blocked
system.cpu1.icache.blocked_cycles::no_mshrs            0                       # number of cycles access was blocked
system.cpu1.icache.blocked_cycles::no_targets            0                       # number of cycles access was blocked
system.cpu1.icache.demand_accesses::.cpu1.inst     67564204                       # number of demand (read+write) accesses
system.cpu1.icache.demand_accesses::total     67564204                       # number of demand (read+write) accesses
system.cpu1.icache.demand_avg_miss_latency::.cpu1.inst 26312.028143                       # average overall miss latency
system.cpu1.icache.demand_avg_miss_latency::total 26312.028143                       # average overall miss latency
system.cpu1.icache.demand_avg_mshr_miss_latency::.cpu1.inst 24312.028143                       # average overall mshr miss latency
system.cpu1.icache.demand_avg_mshr_miss_latency::total 24312.028143                       # average overall mshr miss latency
system.cpu1.icache.demand_hits::.cpu1.inst     67338500                       # number of demand (read+write) hits
system.cpu1.icache.demand_hits::total        67338500                       # number of demand (read+write) hits
system.cpu1.icache.demand_miss_latency::.cpu1.inst   5938730000                       # number of demand (read+write) miss cycles
system.cpu1.icache.demand_miss_latency::total   5938730000                       # number of demand (read+write) miss cycles
system.cpu1.icache.demand_miss_rate::.cpu1.inst     0.003341                       # miss rate for demand accesses
system.cpu1.icache.demand_miss_rate::total     0.003341                       # miss rate for demand accesses
system.cpu1.icache.demand_misses::.cpu1.inst       225704                       # number of demand (read+write) misses
system.cpu1.icache.demand_misses::total        225704                       # number of demand (read+write) misses
system.cpu1.icache.demand_mshr_miss_latency::.cpu1.inst   5487322000                       # number of demand (read+write) MSHR miss cycles
system.cpu1.icache.demand_mshr_miss_latency::total   5487322000                       # number of demand (read+write) MSHR miss cycles
system.cpu1.icache.demand_mshr_miss_rate::.cpu1.inst     0.003341                       # mshr miss rate for demand accesses
system.cpu1.icache.demand_mshr_miss_rate::total     0.003341                       # mshr miss rate for demand accesses
system.cpu1.icache.demand_mshr_misses::.cpu1.inst       225704                       # number of demand (read+write) MSHR misses
system.cpu1.icache.demand_mshr_misses::total       225704                       # number of demand (read+write) MSHR misses
system.cpu1.icache.overall_accesses::.cpu1.inst     67564204                       # number of overall (read+write) accesses
system.cpu1.icache.overall_accesses::total     67564204                       # number of overall (read+write) accesses
system.cpu1.icache.overall_avg_miss_latency::.cpu1.inst 26312.028143                       # average overall miss latency
system.cpu1.icache.overall_avg_miss_latency::total 26312.028143                       # average overall miss latency
system.cpu1.icache.overall_avg_mshr_miss_latency::.cpu1.inst 24312.028143                       # average overall mshr miss latency
system.cpu1.icache.overall_avg_mshr_miss_latency::total 24312.028143                       # average overall mshr miss latency
system.cpu1.icache.overall_hits::.cpu1.inst     67338500                       # number of overall hits
system.cpu1.icache.overall_hits::total       67338500                       # number of overall hits
system.cpu1.icache.overall_miss_latency::.cpu1.inst   5938730000                       # number of overall miss cycles
system.cpu1.icache.overall_miss_latency::total   5938730000                       # number of overall miss cycles
system.cpu1.icache.overall_miss_rate::.cpu1.inst     0.003341                       # miss rate for overall accesses
system.cpu1.icache.overall_miss_rate::total     0.003341                       # miss rate for overall accesses
system.cpu1.icache.overall_misses::.cpu1.inst       225704                       # number of overall misses
system.cpu1.icache.overall_misses::total       225704                       # number of overall misses
system.cpu1.icache.overall_mshr_miss_latency::.cpu1.inst   5487322000                       # number of overall MSHR miss cycles
system.cpu1.icache.overall_mshr_miss_latency::total   5487322000                       # number of overall MSHR miss cycles
system.cpu1.icache.overall_mshr_miss_rate::.cpu1.inst     0.003341                       # mshr miss rate for overall accesses
system.cpu1.icache.overall_mshr_miss_rate::total     0.003341                       # mshr miss rate for overall accesses
system.cpu1.icache.overall_mshr_misses::.cpu1.inst       225704                       # number of overall MSHR misses
system.cpu1.icache.overall_mshr_misses::total       225704                       # number of overall MSHR misses
system.cpu1.icache.pwrStateResidencyTicks::UNDEFINED 184944982000                       # Cumulative time (in ticks) in various power states
system.cpu1.icache.replacements                225451                       # number of replacements
system.cpu1.icache.tags.age_task_id_blocks_1024::0            6                       # Occupied blocks per task id
system.cpu1.icache.tags.age_task_id_blocks_1024::3           10                       # Occupied blocks per task id
system.cpu1.icache.tags.age_task_id_blocks_1024::4          237                       # Occupied blocks per task id
system.cpu1.icache.tags.avg_refs           299.348722                       # Average number of references to valid blocks.
system.cpu1.icache.tags.data_accesses       135354112                       # Number of data accesses
system.cpu1.icache.tags.occ_blocks::.cpu1.inst   252.702049                       # Average occupied blocks per requestor
system.cpu1.icache.tags.occ_percent::.cpu1.inst     0.987117                       # Average percentage of cache occupancy
system.cpu1.icache.tags.occ_percent::total     0.987117                       # Average percentage of cache occupancy
system.cpu1.icache.tags.occ_task_id_blocks::1024          253                       # Occupied blocks per task id
system.cpu1.icache.tags.occ_task_id_percent::1024     0.988281                       # Percentage of cache occupancy per task id
system.cpu1.icache.tags.pwrStateResidencyTicks::UNDEFINED 184944982000                       # Cumulative time (in ticks) in various power states
system.cpu1.icache.tags.sampled_refs           225704                       # Sample count of references to valid blocks.
system.cpu1.icache.tags.tag_accesses        135354112                       # Number of tag accesses
system.cpu1.icache.tags.tagsinuse          252.702049                       # Cycle average of tags in use
system.cpu1.icache.tags.total_refs           67564204                       # Total number of references to valid blocks.
system.cpu1.icache.tags.warmup_cycle           156000                       # Cycle when the warmup percentage was hit.
system.cpu1.idle_fraction                           0                       # Percentage of idle cycles
system.cpu1.interrupts.clk_domain.clock         16000                       # Clock period in ticks
system.cpu1.interrupts.pwrStateResidencyTicks::UNDEFINED 184944982000                       # Cumulative time (in ticks) in various power states
system.cpu1.itb.rdAccesses                          0                       # TLB accesses on read requests
system.cpu1.itb.rdMisses                            0                       # TLB misses on read requests
system.cpu1.itb.walker.pwrStateResidencyTicks::UNDEFINED 184944982000                       # Cumulative time (in ticks) in various power states
system.cpu1.itb.wrAccesses                   67564204                       # TLB accesses on write requests
system.cpu1.itb.wrMisses                           49                       # TLB misses on write requests
system.cpu1.not_idle_fraction                       1                       # Percentage of non-idle cycles
system.cpu1.numCycles                       184944982                       # number of cpu cycles simulated
system.cpu1.numWorkItemsCompleted                   0                       # number of work items this cpu completed
system.cpu1.numWorkItemsStarted                     0                       # number of work items this cpu started
system.cpu1.num_busy_cycles                 184944982                       # Number of busy cycles
system.cpu1.num_cc_register_reads            57999789                       # number of times the CC registers were read
system.cpu1.num_cc_register_writes           29711192                       # number of times the CC registers were written
system.cpu1.num_conditional_control_insts      9157455                       # number of instructions that are conditional controls
system.cpu1.num_fp_alu_accesses               1222432                       # Number of float alu accesses
system.cpu1.num_fp_insts                      1222432                       # number of float instructions
system.cpu1.num_fp_register_reads             1373816                       # number of times the floating registers were read
system.cpu1.num_fp_register_writes             922801                       # number of times the floating registers were written
system.cpu1.num_func_calls                     950822                       # number of times a function call or return occured
system.cpu1.num_idle_cycles                         0                       # Number of idle cycles
system.cpu1.num_int_alu_accesses             92671260                       # Number of integer alu accesses
system.cpu1.num_int_insts                    92671260                       # number of integer instructions
system.cpu1.num_int_register_reads          179379720                       # number of times the integer registers were read
system.cpu1.num_int_register_writes          74049566                       # number of times the integer registers were written
system.cpu1.num_load_insts                   10889359                       # Number of load instructions
system.cpu1.num_mem_refs                     18163650                       # number of memory refs
system.cpu1.num_store_insts                   7274291                       # Number of store instructions
system.cpu1.num_vec_alu_accesses                    0                       # Number of vector alu accesses
system.cpu1.num_vec_insts                           0                       # number of vector instructions
system.cpu1.num_vec_register_reads                  0                       # number of times the vector registers were read
system.cpu1.num_vec_register_writes                 0                       # number of times the vector registers were written
system.cpu1.op_class::No_OpClass               166650      0.18%      0.18% # Class of executed instruction
system.cpu1.op_class::IntAlu                 74178542     79.41%     79.58% # Class of executed instruction
system.cpu1.op_class::IntMult                  223387      0.24%     79.82% # Class of executed instruction
system.cpu1.op_class::IntDiv                       21      0.00%     79.82% # Class of executed instruction
system.cpu1.op_class::FloatAdd                 117293      0.13%     79.95% # Class of executed instruction
system.cpu1.op_class::FloatCmp                      0      0.00%     79.95% # Class of executed instruction
system.cpu1.op_class::FloatCvt                      0      0.00%     79.95% # Class of executed instruction
system.cpu1.op_class::FloatMult                     0      0.00%     79.95% # Class of executed instruction
system.cpu1.op_class::FloatMultAcc                  0      0.00%     79.95% # Class of executed instruction
system.cpu1.op_class::FloatDiv                      0      0.00%     79.95% # Class of executed instruction
system.cpu1.op_class::FloatMisc                     0      0.00%     79.95% # Class of executed instruction
system.cpu1.op_class::FloatSqrt                     0      0.00%     79.95% # Class of executed instruction
system.cpu1.op_class::SimdAdd                     374      0.00%     79.95% # Class of executed instruction
system.cpu1.op_class::SimdAddAcc                    0      0.00%     79.95% # Class of executed instruction
system.cpu1.op_class::SimdAlu                     100      0.00%     79.95% # Class of executed instruction
system.cpu1.op_class::SimdCmp                       0      0.00%     79.95% # Class of executed instruction
system.cpu1.op_class::SimdCvt                  110402      0.12%     80.07% # Class of executed instruction
system.cpu1.op_class::SimdMisc                 455811      0.49%     80.56% # Class of executed instruction
system.cpu1.op_class::SimdMult                      0      0.00%     80.56% # Class of executed instruction
system.cpu1.op_class::SimdMultAcc                   0      0.00%     80.56% # Class of executed instruction
system.cpu1.op_class::SimdShift                   186      0.00%     80.56% # Class of executed instruction
system.cpu1.op_class::SimdShiftAcc                  0      0.00%     80.56% # Class of executed instruction
system.cpu1.op_class::SimdDiv                       0      0.00%     80.56% # Class of executed instruction
system.cpu1.op_class::SimdSqrt                      0      0.00%     80.56% # Class of executed instruction
system.cpu1.op_class::SimdFloatAdd                  0      0.00%     80.56% # Class of executed instruction
system.cpu1.op_class::SimdFloatAlu                  0      0.00%     80.56% # Class of executed instruction
system.cpu1.op_class::SimdFloatCmp                  0      0.00%     80.56% # Class of executed instruction
system.cpu1.op_class::SimdFloatCvt                  0      0.00%     80.56% # Class of executed instruction
system.cpu1.op_class::SimdFloatDiv                  0      0.00%     80.56% # Class of executed instruction
system.cpu1.op_class::SimdFloatMisc                 0      0.00%     80.56% # Class of executed instruction
system.cpu1.op_class::SimdFloatMult                 0      0.00%     80.56% # Class of executed instruction
system.cpu1.op_class::SimdFloatMultAcc              0      0.00%     80.56% # Class of executed instruction
system.cpu1.op_class::SimdFloatSqrt                 0      0.00%     80.56% # Class of executed instruction
system.cpu1.op_class::SimdReduceAdd                 0      0.00%     80.56% # Class of executed instruction
system.cpu1.op_class::SimdReduceAlu                 0      0.00%     80.56% # Class of executed instruction
system.cpu1.op_class::SimdReduceCmp                 0      0.00%     80.56% # Class of executed instruction
system.cpu1.op_class::SimdFloatReduceAdd            0      0.00%     80.56% # Class of executed instruction
system.cpu1.op_class::SimdFloatReduceCmp            0      0.00%     80.56% # Class of executed instruction
system.cpu1.op_class::SimdAes                       0      0.00%     80.56% # Class of executed instruction
system.cpu1.op_class::SimdAesMix                    0      0.00%     80.56% # Class of executed instruction
system.cpu1.op_class::SimdSha1Hash                  0      0.00%     80.56% # Class of executed instruction
system.cpu1.op_class::SimdSha1Hash2                 0      0.00%     80.56% # Class of executed instruction
system.cpu1.op_class::SimdSha256Hash                0      0.00%     80.56% # Class of executed instruction
system.cpu1.op_class::SimdSha256Hash2               0      0.00%     80.56% # Class of executed instruction
system.cpu1.op_class::SimdShaSigma2                 0      0.00%     80.56% # Class of executed instruction
system.cpu1.op_class::SimdShaSigma3                 0      0.00%     80.56% # Class of executed instruction
system.cpu1.op_class::SimdPredAlu                   0      0.00%     80.56% # Class of executed instruction
system.cpu1.op_class::MemRead                10590223     11.34%     91.89% # Class of executed instruction
system.cpu1.op_class::MemWrite                7085002      7.58%     99.48% # Class of executed instruction
system.cpu1.op_class::FloatMemRead             299136      0.32%     99.80% # Class of executed instruction
system.cpu1.op_class::FloatMemWrite            189289      0.20%    100.00% # Class of executed instruction
system.cpu1.op_class::IprAccess                     0      0.00%    100.00% # Class of executed instruction
system.cpu1.op_class::InstPrefetch                  0      0.00%    100.00% # Class of executed instruction
system.cpu1.op_class::total                  93416416                       # Class of executed instruction
system.cpu1.pwrStateResidencyTicks::ON   184944982000                       # Cumulative time (in ticks) in various power states
system.cpu1.workload.numSyscalls                   56                       # Number of system calls
system.cpu2.Branches                         11264799                       # Number of branches fetched
system.cpu2.committedInsts                   49970363                       # Number of instructions committed
system.cpu2.committedOps                     93360464                       # Number of ops (including micro ops) committed
system.cpu2.dcache.ReadReq_accesses::.cpu2.data     10888756                       # number of ReadReq accesses(hits+misses)
system.cpu2.dcache.ReadReq_accesses::total     10888756                       # number of ReadReq accesses(hits+misses)
system.cpu2.dcache.ReadReq_avg_miss_latency::.cpu2.data 96616.465453                       # average ReadReq miss latency
system.cpu2.dcache.ReadReq_avg_miss_latency::total 96616.465453                       # average ReadReq miss latency
system.cpu2.dcache.ReadReq_avg_mshr_miss_latency::.cpu2.data 94616.465453                       # average ReadReq mshr miss latency
system.cpu2.dcache.ReadReq_avg_mshr_miss_latency::total 94616.465453                       # average ReadReq mshr miss latency
system.cpu2.dcache.ReadReq_hits::.cpu2.data     10874095                       # number of ReadReq hits
system.cpu2.dcache.ReadReq_hits::total       10874095                       # number of ReadReq hits
system.cpu2.dcache.ReadReq_miss_latency::.cpu2.data   1416494000                       # number of ReadReq miss cycles
system.cpu2.dcache.ReadReq_miss_latency::total   1416494000                       # number of ReadReq miss cycles
system.cpu2.dcache.ReadReq_miss_rate::.cpu2.data     0.001346                       # miss rate for ReadReq accesses
system.cpu2.dcache.ReadReq_miss_rate::total     0.001346                       # miss rate for ReadReq accesses
system.cpu2.dcache.ReadReq_misses::.cpu2.data        14661                       # number of ReadReq misses
system.cpu2.dcache.ReadReq_misses::total        14661                       # number of ReadReq misses
system.cpu2.dcache.ReadReq_mshr_miss_latency::.cpu2.data   1387172000                       # number of ReadReq MSHR miss cycles
system.cpu2.dcache.ReadReq_mshr_miss_latency::total   1387172000                       # number of ReadReq MSHR miss cycles
system.cpu2.dcache.ReadReq_mshr_miss_rate::.cpu2.data     0.001346                       # mshr miss rate for ReadReq accesses
system.cpu2.dcache.ReadReq_mshr_miss_rate::total     0.001346                       # mshr miss rate for ReadReq accesses
system.cpu2.dcache.ReadReq_mshr_misses::.cpu2.data        14661                       # number of ReadReq MSHR misses
system.cpu2.dcache.ReadReq_mshr_misses::total        14661                       # number of ReadReq MSHR misses
system.cpu2.dcache.WriteReq_accesses::.cpu2.data      7270039                       # number of WriteReq accesses(hits+misses)
system.cpu2.dcache.WriteReq_accesses::total      7270039                       # number of WriteReq accesses(hits+misses)
system.cpu2.dcache.WriteReq_avg_miss_latency::.cpu2.data 131306.437007                       # average WriteReq miss latency
system.cpu2.dcache.WriteReq_avg_miss_latency::total 131306.437007                       # average WriteReq miss latency
system.cpu2.dcache.WriteReq_avg_mshr_miss_latency::.cpu2.data 129306.437007                       # average WriteReq mshr miss latency
system.cpu2.dcache.WriteReq_avg_mshr_miss_latency::total 129306.437007                       # average WriteReq mshr miss latency
system.cpu2.dcache.WriteReq_hits::.cpu2.data      7218136                       # number of WriteReq hits
system.cpu2.dcache.WriteReq_hits::total       7218136                       # number of WriteReq hits
system.cpu2.dcache.WriteReq_miss_latency::.cpu2.data   6815198000                       # number of WriteReq miss cycles
system.cpu2.dcache.WriteReq_miss_latency::total   6815198000                       # number of WriteReq miss cycles
system.cpu2.dcache.WriteReq_miss_rate::.cpu2.data     0.007139                       # miss rate for WriteReq accesses
system.cpu2.dcache.WriteReq_miss_rate::total     0.007139                       # miss rate for WriteReq accesses
system.cpu2.dcache.WriteReq_misses::.cpu2.data        51903                       # number of WriteReq misses
system.cpu2.dcache.WriteReq_misses::total        51903                       # number of WriteReq misses
system.cpu2.dcache.WriteReq_mshr_miss_latency::.cpu2.data   6711392000                       # number of WriteReq MSHR miss cycles
system.cpu2.dcache.WriteReq_mshr_miss_latency::total   6711392000                       # number of WriteReq MSHR miss cycles
system.cpu2.dcache.WriteReq_mshr_miss_rate::.cpu2.data     0.007139                       # mshr miss rate for WriteReq accesses
system.cpu2.dcache.WriteReq_mshr_miss_rate::total     0.007139                       # mshr miss rate for WriteReq accesses
system.cpu2.dcache.WriteReq_mshr_misses::.cpu2.data        51903                       # number of WriteReq MSHR misses
system.cpu2.dcache.WriteReq_mshr_misses::total        51903                       # number of WriteReq MSHR misses
system.cpu2.dcache.avg_blocked_cycles::no_mshrs          nan                       # average number of cycles each access was blocked
system.cpu2.dcache.avg_blocked_cycles::no_targets          nan                       # average number of cycles each access was blocked
system.cpu2.dcache.blocked::no_mshrs                0                       # number of cycles access was blocked
system.cpu2.dcache.blocked::no_targets              0                       # number of cycles access was blocked
system.cpu2.dcache.blocked_cycles::no_mshrs            0                       # number of cycles access was blocked
system.cpu2.dcache.blocked_cycles::no_targets            0                       # number of cycles access was blocked
system.cpu2.dcache.demand_accesses::.cpu2.data     18158795                       # number of demand (read+write) accesses
system.cpu2.dcache.demand_accesses::total     18158795                       # number of demand (read+write) accesses
system.cpu2.dcache.demand_avg_miss_latency::.cpu2.data 123665.825371                       # average overall miss latency
system.cpu2.dcache.demand_avg_miss_latency::total 123665.825371                       # average overall miss latency
system.cpu2.dcache.demand_avg_mshr_miss_latency::.cpu2.data 121665.825371                       # average overall mshr miss latency
system.cpu2.dcache.demand_avg_mshr_miss_latency::total 121665.825371                       # average overall mshr miss latency
system.cpu2.dcache.demand_hits::.cpu2.data     18092231                       # number of demand (read+write) hits
system.cpu2.dcache.demand_hits::total        18092231                       # number of demand (read+write) hits
system.cpu2.dcache.demand_miss_latency::.cpu2.data   8231692000                       # number of demand (read+write) miss cycles
system.cpu2.dcache.demand_miss_latency::total   8231692000                       # number of demand (read+write) miss cycles
system.cpu2.dcache.demand_miss_rate::.cpu2.data     0.003666                       # miss rate for demand accesses
system.cpu2.dcache.demand_miss_rate::total     0.003666                       # miss rate for demand accesses
system.cpu2.dcache.demand_misses::.cpu2.data        66564                       # number of demand (read+write) misses
system.cpu2.dcache.demand_misses::total         66564                       # number of demand (read+write) misses
system.cpu2.dcache.demand_mshr_miss_latency::.cpu2.data   8098564000                       # number of demand (read+write) MSHR miss cycles
system.cpu2.dcache.demand_mshr_miss_latency::total   8098564000                       # number of demand (read+write) MSHR miss cycles
system.cpu2.dcache.demand_mshr_miss_rate::.cpu2.data     0.003666                       # mshr miss rate for demand accesses
system.cpu2.dcache.demand_mshr_miss_rate::total     0.003666                       # mshr miss rate for demand accesses
system.cpu2.dcache.demand_mshr_misses::.cpu2.data        66564                       # number of demand (read+write) MSHR misses
system.cpu2.dcache.demand_mshr_misses::total        66564                       # number of demand (read+write) MSHR misses
system.cpu2.dcache.overall_accesses::.cpu2.data     18158795                       # number of overall (read+write) accesses
system.cpu2.dcache.overall_accesses::total     18158795                       # number of overall (read+write) accesses
system.cpu2.dcache.overall_avg_miss_latency::.cpu2.data 123665.825371                       # average overall miss latency
system.cpu2.dcache.overall_avg_miss_latency::total 123665.825371                       # average overall miss latency
system.cpu2.dcache.overall_avg_mshr_miss_latency::.cpu2.data 121665.825371                       # average overall mshr miss latency
system.cpu2.dcache.overall_avg_mshr_miss_latency::total 121665.825371                       # average overall mshr miss latency
system.cpu2.dcache.overall_hits::.cpu2.data     18092231                       # number of overall hits
system.cpu2.dcache.overall_hits::total       18092231                       # number of overall hits
system.cpu2.dcache.overall_miss_latency::.cpu2.data   8231692000                       # number of overall miss cycles
system.cpu2.dcache.overall_miss_latency::total   8231692000                       # number of overall miss cycles
system.cpu2.dcache.overall_miss_rate::.cpu2.data     0.003666                       # miss rate for overall accesses
system.cpu2.dcache.overall_miss_rate::total     0.003666                       # miss rate for overall accesses
system.cpu2.dcache.overall_misses::.cpu2.data        66564                       # number of overall misses
system.cpu2.dcache.overall_misses::total        66564                       # number of overall misses
system.cpu2.dcache.overall_mshr_miss_latency::.cpu2.data   8098564000                       # number of overall MSHR miss cycles
system.cpu2.dcache.overall_mshr_miss_latency::total   8098564000                       # number of overall MSHR miss cycles
system.cpu2.dcache.overall_mshr_miss_rate::.cpu2.data     0.003666                       # mshr miss rate for overall accesses
system.cpu2.dcache.overall_mshr_miss_rate::total     0.003666                       # mshr miss rate for overall accesses
system.cpu2.dcache.overall_mshr_misses::.cpu2.data        66564                       # number of overall MSHR misses
system.cpu2.dcache.overall_mshr_misses::total        66564                       # number of overall MSHR misses
system.cpu2.dcache.pwrStateResidencyTicks::UNDEFINED 184944982000                       # Cumulative time (in ticks) in various power states
system.cpu2.dcache.replacements                 65540                       # number of replacements
system.cpu2.dcache.tags.age_task_id_blocks_1024::0            1                       # Occupied blocks per task id
[...]
system.mem_ctrl.totQLat                    8451952445                       # Total ticks spent queuing
system.mem_ctrl.wrPerTurnAround::samples        13254                       # Writes before turning the bus around for reads
system.mem_ctrl.wrPerTurnAround::mean       17.806398                       # Writes before turning the bus around for reads
system.mem_ctrl.wrPerTurnAround::gmean      17.770478                       # Writes before turning the bus around for reads
system.mem_ctrl.wrPerTurnAround::stdev       1.125801                       # Writes before turning the bus around for reads
system.mem_ctrl.wrPerTurnAround::16              2900     21.88%     21.88% # Writes before turning the bus around for reads
system.mem_ctrl.wrPerTurnAround::17               158      1.19%     23.07% # Writes before turning the bus around for reads
system.mem_ctrl.wrPerTurnAround::18              7612     57.43%     80.50% # Writes before turning the bus around for reads
system.mem_ctrl.wrPerTurnAround::19              1983     14.96%     95.47% # Writes before turning the bus around for reads
system.mem_ctrl.wrPerTurnAround::20               438      3.30%     98.77% # Writes before turning the bus around for reads
system.mem_ctrl.wrPerTurnAround::21               128      0.97%     99.74% # Writes before turning the bus around for reads
system.mem_ctrl.wrPerTurnAround::22                29      0.22%     99.95% # Writes before turning the bus around for reads
system.mem_ctrl.wrPerTurnAround::23                 4      0.03%     99.98% # Writes before turning the bus around for reads
system.mem_ctrl.wrPerTurnAround::24                 1      0.01%     99.99% # Writes before turning the bus around for reads
system.mem_ctrl.wrPerTurnAround::25                 1      0.01%    100.00% # Writes before turning the bus around for reads
system.mem_ctrl.wrPerTurnAround::total          13254                       # Writes before turning the bus around for reads
system.mem_ctrl.wrQLenPdf::0                        1                       # What write queue length does an incoming req see
system.mem_ctrl.wrQLenPdf::1                        1                       # What write queue length does an incoming req see
system.mem_ctrl.wrQLenPdf::2                        1                       # What write queue length does an incoming req see
system.mem_ctrl.wrQLenPdf::3                        1                       # What write queue length does an incoming req see
system.mem_ctrl.wrQLenPdf::4                        1                       # What write queue length does an incoming req see
system.mem_ctrl.wrQLenPdf::5                        1                       # What write queue length does an incoming req see
system.mem_ctrl.wrQLenPdf::6                        1                       # What write queue length does an incoming req see
system.mem_ctrl.wrQLenPdf::7                        1                       # What write queue length does an incoming req see
system.mem_ctrl.wrQLenPdf::8                        1                       # What write queue length does an incoming req see
system.mem_ctrl.wrQLenPdf::9                        1                       # What write queue length does an incoming req see
system.mem_ctrl.wrQLenPdf::10                       1                       # What write queue length does an incoming req see
system.mem_ctrl.wrQLenPdf::11                       1                       # What write queue length does an incoming req see
system.mem_ctrl.wrQLenPdf::12                       1                       # What write queue length does an incoming req see
system.mem_ctrl.wrQLenPdf::13                       1                       # What write queue length does an incoming req see
system.mem_ctrl.wrQLenPdf::14                       1                       # What write queue length does an incoming req see
system.mem_ctrl.wrQLenPdf::15                   10116                       # What write queue length does an incoming req see
system.mem_ctrl.wrQLenPdf::16                   10410                       # What write queue length does an incoming req see
system.mem_ctrl.wrQLenPdf::17                   12615                       # What write queue length does an incoming req see
system.mem_ctrl.wrQLenPdf::18                   13213                       # What write queue length does an incoming req see
system.mem_ctrl.wrQLenPdf::19                   13341                       # What write queue length does an incoming req see
system.mem_ctrl.wrQLenPdf::20                   13377                       # What write queue length does an incoming req see
system.mem_ctrl.wrQLenPdf::21                   13424                       # What write queue length does an incoming req see
system.mem_ctrl.wrQLenPdf::22                   13442                       # What write queue length does an incoming req see
system.mem_ctrl.wrQLenPdf::23                   13421                       # What write queue length does an incoming req see
system.mem_ctrl.wrQLenPdf::24                   13367                       # What write queue length does an incoming req see
system.mem_ctrl.wrQLenPdf::25                   13369                       # What write queue length does an incoming req see
system.mem_ctrl.wrQLenPdf::26                   13488                       # What write queue length does an incoming req see
system.mem_ctrl.wrQLenPdf::27                   13448                       # What write queue length does an incoming req see
system.mem_ctrl.wrQLenPdf::28                   13635                       # What write queue length does an incoming req see
system.mem_ctrl.wrQLenPdf::29                   15419                       # What write queue length does an incoming req see
system.mem_ctrl.wrQLenPdf::30                   13364                       # What write queue length does an incoming req see
system.mem_ctrl.wrQLenPdf::31                   13271                       # What write queue length does an incoming req see
system.mem_ctrl.wrQLenPdf::32                   13260                       # What write queue length does an incoming req see
system.mem_ctrl.wrQLenPdf::33                      24                       # What write queue length does an incoming req see
system.mem_ctrl.wrQLenPdf::34                       2                       # What write queue length does an incoming req see
system.mem_ctrl.wrQLenPdf::35                       0                       # What write queue length does an incoming req see
system.mem_ctrl.wrQLenPdf::36                       0                       # What write queue length does an incoming req see
system.mem_ctrl.wrQLenPdf::37                       0                       # What write queue length does an incoming req see
system.mem_ctrl.wrQLenPdf::38                       0                       # What write queue length does an incoming req see
system.mem_ctrl.wrQLenPdf::39                       0                       # What write queue length does an incoming req see
system.mem_ctrl.wrQLenPdf::40                       0                       # What write queue length does an incoming req see
system.mem_ctrl.wrQLenPdf::41                       0                       # What write queue length does an incoming req see
system.mem_ctrl.wrQLenPdf::42                       0                       # What write queue length does an incoming req see
system.mem_ctrl.wrQLenPdf::43                       0                       # What write queue length does an incoming req see
system.mem_ctrl.wrQLenPdf::44                       0                       # What write queue length does an incoming req see
system.mem_ctrl.wrQLenPdf::45                       0                       # What write queue length does an incoming req see
system.mem_ctrl.wrQLenPdf::46                       0                       # What write queue length does an incoming req see
system.mem_ctrl.wrQLenPdf::47                       0                       # What write queue length does an incoming req see
system.mem_ctrl.wrQLenPdf::48                       0                       # What write queue length does an incoming req see
system.mem_ctrl.wrQLenPdf::49                       0                       # What write queue length does an incoming req see
system.mem_ctrl.wrQLenPdf::50                       0                       # What write queue length does an incoming req see
system.mem_ctrl.wrQLenPdf::51                       0                       # What write queue length does an incoming req see
system.mem_ctrl.wrQLenPdf::52                       0                       # What write queue length does an incoming req see
system.mem_ctrl.wrQLenPdf::53                       0                       # What write queue length does an incoming req see
system.mem_ctrl.wrQLenPdf::54                       0                       # What write queue length does an incoming req see
system.mem_ctrl.wrQLenPdf::55                       0                       # What write queue length does an incoming req see
system.mem_ctrl.wrQLenPdf::56                       0                       # What write queue length does an incoming req see
system.mem_ctrl.wrQLenPdf::57                       0                       # What write queue length does an incoming req see
system.mem_ctrl.wrQLenPdf::58                       0                       # What write queue length does an incoming req see
system.mem_ctrl.wrQLenPdf::59                       0                       # What write queue length does an incoming req see
system.mem_ctrl.wrQLenPdf::60                       0                       # What write queue length does an incoming req see
system.mem_ctrl.wrQLenPdf::61                       0                       # What write queue length does an incoming req see
system.mem_ctrl.wrQLenPdf::62                       0                       # What write queue length does an incoming req see
system.mem_ctrl.wrQLenPdf::63                       0                       # What write queue length does an incoming req see
system.mem_ctrl.writeBursts                    236021                       # Number of DRAM write bursts, including those merged in the write queue
system.mem_ctrl.writePktSize::0                     0                       # Write request sizes (log2)
system.mem_ctrl.writePktSize::1                     0                       # Write request sizes (log2)
system.mem_ctrl.writePktSize::2                     0                       # Write request sizes (log2)
system.mem_ctrl.writePktSize::3                     0                       # Write request sizes (log2)
system.mem_ctrl.writePktSize::4                     0                       # Write request sizes (log2)
system.mem_ctrl.writePktSize::5                     0                       # Write request sizes (log2)
system.mem_ctrl.writePktSize::6                236021                       # Write request sizes (log2)
system.mem_ctrl.writeReqs                      236021                       # Number of write requests accepted
system.mem_ctrl.writeRowHitRate                 53.35                       # Row buffer hit rate for writes
system.mem_ctrl.writeRowHits                   125928                       # Number of row buffer hits during writes
system.mem_ctrl_0.actBackEnergy           65946175650                       # Energy for active background per rank (pJ)
system.mem_ctrl_0.actEnergy                1030987440                       # Energy for activate commands per rank (pJ)
system.mem_ctrl_0.actPowerDownEnergy                0                       # Energy for active power-down per rank (pJ)
system.mem_ctrl_0.averagePower             535.873408                       # Core power per rank (mW)
system.mem_ctrl_0.memoryStateTime::IDLE   39648819662                       # Time in different power states
system.mem_ctrl_0.memoryStateTime::REF     6175520000                       # Time in different power states
system.mem_ctrl_0.memoryStateTime::SREF             0                       # Time in different power states
system.mem_ctrl_0.memoryStateTime::PRE_PDN            0                       # Time in different power states
system.mem_ctrl_0.memoryStateTime::ACT   139120642338                       # Time in different power states
system.mem_ctrl_0.memoryStateTime::ACT_PDN            0                       # Time in different power states
system.mem_ctrl_0.preBackEnergy           15485251680                       # Energy for precharge background per rank (pJ)
system.mem_ctrl_0.preEnergy                 547971435                       # Energy for precharge commands per rank (pJ)
system.mem_ctrl_0.prePowerDownEnergy                0                       # Energy for precharge power-down per rank (pJ)
system.mem_ctrl_0.readEnergy                880861800                       # Energy for read commands per rank (pJ)
system.mem_ctrl_0.refreshEnergy          14598929280.000002                       # Energy for refresh commands per rank (pJ)
system.mem_ctrl_0.selfRefreshEnergy                 0                       # Energy for self refresh per rank (pJ)
system.mem_ctrl_0.totalEnergy             99107097765                       # Total energy per rank (pJ)
system.mem_ctrl_0.totalIdleTime                     0                       # Total Idle time Per DRAM Rank
system.mem_ctrl_0.writeEnergy               616920480                       # Energy for write commands per rank (pJ)
system.mem_ctrl_1.actBackEnergy           67219316250                       # Energy for active background per rank (pJ)
system.mem_ctrl_1.actEnergy                1089321240                       # Energy for activate commands per rank (pJ)
system.mem_ctrl_1.actPowerDownEnergy                0                       # Energy for active power-down per rank (pJ)
system.mem_ctrl_1.averagePower             537.751273                       # Core power per rank (mW)
system.mem_ctrl_1.memoryStateTime::IDLE   36851273102                       # Time in different power states
system.mem_ctrl_1.memoryStateTime::REF     6175520000                       # Time in different power states
system.mem_ctrl_1.memoryStateTime::SREF             0                       # Time in different power states
system.mem_ctrl_1.memoryStateTime::PRE_PDN            0                       # Time in different power states
system.mem_ctrl_1.memoryStateTime::ACT   141918188898                       # Time in different power states
system.mem_ctrl_1.memoryStateTime::ACT_PDN            0                       # Time in different power states
system.mem_ctrl_1.preBackEnergy           14413133280                       # Energy for precharge background per rank (pJ)
system.mem_ctrl_1.preEnergy                 578980380                       # Energy for precharge commands per rank (pJ)
system.mem_ctrl_1.prePowerDownEnergy                0                       # Energy for precharge power-down per rank (pJ)
system.mem_ctrl_1.readEnergy                939688260                       # Energy for read commands per rank (pJ)
system.mem_ctrl_1.refreshEnergy          14598929280.000002                       # Energy for refresh commands per rank (pJ)
system.mem_ctrl_1.selfRefreshEnergy                 0                       # Energy for self refresh per rank (pJ)
system.mem_ctrl_1.totalEnergy             99454399530                       # Total energy per rank (pJ)
system.mem_ctrl_1.totalIdleTime                     0                       # Total Idle time Per DRAM Rank
system.mem_ctrl_1.writeEnergy               615030840                       # Energy for write commands per rank (pJ)
system.membus.pkt_count_system.l2cache.mem_side::system.mem_ctrl.port       755219                       # Packet count per connected master and slave (bytes)
system.membus.pkt_count_system.l2cache.mem_side::total       755219                       # Packet count per connected master and slave (bytes)
system.membus.pkt_count::total                 755219                       # Packet count per connected master and slave (bytes)
system.membus.pkt_size_system.l2cache.mem_side::system.mem_ctrl.port     31424256                       # Cumulative packet size per connected master and slave (bytes)
system.membus.pkt_size_system.l2cache.mem_side::total     31424256                       # Cumulative packet size per connected master and slave (bytes)
system.membus.pkt_size::total                31424256                       # Cumulative packet size per connected master and slave (bytes)
system.membus.pwrStateResidencyTicks::UNDEFINED 184944982000                       # Cumulative time (in ticks) in various power states
system.membus.reqLayer8.occupancy          1484081199                       # Layer occupancy (ticks)
system.membus.reqLayer8.utilization               0.8                       # Layer utilization (%)
system.membus.respLayer0.occupancy         1393144100                       # Layer occupancy (ticks)
system.membus.respLayer0.utilization              0.8                       # Layer utilization (%)
system.membus.snoopTraffic                          0                       # Total snoop traffic (bytes)
system.membus.snoop_fanout::samples            254983                       # Request fanout histogram
system.membus.snoop_fanout::mean                    0                       # Request fanout histogram
system.membus.snoop_fanout::stdev                   0                       # Request fanout histogram
system.membus.snoop_fanout::underflows              0      0.00%      0.00% # Request fanout histogram
system.membus.snoop_fanout::0                  254983    100.00%    100.00% # Request fanout histogram
system.membus.snoop_fanout::1                       0      0.00%    100.00% # Request fanout histogram
system.membus.snoop_fanout::overflows               0      0.00%    100.00% # Request fanout histogram
system.membus.snoop_fanout::min_value               0                       # Request fanout histogram
system.membus.snoop_fanout::max_value               0                       # Request fanout histogram
system.membus.snoop_fanout::total              254983                       # Request fanout histogram
system.membus.snoop_filter.hit_multi_requests            0                       # Number of requests hitting in the snoop filter with multiple (>1) holders of the requested data.
system.membus.snoop_filter.hit_multi_snoops            0                       # Number of snoops hitting in the snoop filter with multiple (>1) holders of the requested data.
system.membus.snoop_filter.hit_single_requests       245253                       # Number of requests hitting in the snoop filter with a single holder of the requested data.
system.membus.snoop_filter.hit_single_snoops            0                       # Number of snoops hitting in the snoop filter with a single holder of the requested data.
system.membus.snoop_filter.tot_requests        500236                       # Total number of requests made to the snoop filter.
system.membus.snoop_filter.tot_snoops               0                       # Total number of snoops made to the snoop filter.
system.membus.snoops                                0                       # Total snoops (count)
system.membus.trans_dist::ReadResp              48081                       # Transaction distribution
system.membus.trans_dist::WritebackDirty       236021                       # Transaction distribution
system.membus.trans_dist::CleanEvict             9232                       # Transaction distribution
system.membus.trans_dist::ReadExReq            206902                       # Transaction distribution
system.membus.trans_dist::ReadExResp           206902                       # Transaction distribution
system.membus.trans_dist::ReadSharedReq         48081                       # Transaction distribution

---------- End Simulation Statistics   ----------
